detected Linux; starting the 2008 version (/share/b/bin/hspice-2008)...
Using: /usr/bin/time -p /share/instsww/synopsys/A-2008.03-SP1/hspice/linux/hspice delay.sp
 ****** HSPICE -- A-2008.03-SP1 32-BIT (May 26 2008) linux ******               
  Copyright (C) 2008 Synopsys, Inc. All Rights Reserved.                        
  Unpublished-rights reserved under US copyright laws.
  This program is protected by law and is subject to the 
  terms and conditions of the license agreement found in:
    /share/instsww/synopsys/A-2008.03-SP1/hspice/license.warn
  Use of this program is your acceptance to be bound by this 
  license agreement. HSPICE is the trademark of Synopsys, Inc.
  Input File: delay.sp                                                          
 lic:  
 lic: FLEXlm: v8.5b 
 lic: USER:   ee141-ak             HOSTNAME: t7400-8.EECS.Berkeley.EDU 
 lic: HOSTID: 001e4ff5c5e8         PID:      10794 
 lic: Using FLEXlm license file: 
 lic: 27000@cory.eecs.berkeley.edu 
 lic: Checkout 1 hspice 
 lic: License/Maintenance for hspice will expire on 25-oct-2013/2012.06 
 lic: FLOATING license(s) on SERVER cory.eecs.berkeley.edu 
 lic:   
 Init: read install configuration file: /share/instsww/synopsys/A-2008.03-SP1/hspice/meta.cfg
 Init: hspice initialization file: /share/instsww/synopsys/A-2008.03-SP1/hspice/hspice.ini

 *****************************************************************************
 * copy this spice deck and the digital vector file 'func_check.vec'
 * into the same folder as your mux and vertical logic block deck. make sure
 * that your block is enclosed within a subckt module.
 *****************************************************************************

 .param vdd_val = 1.2
 .param capval = 15f
 .lib '/home/ff/ee141/models/gpdk090_mos.sp' tt_s1v
 .lib 'gpdk090_mos.sp' s1v_mos
 .model gpdk090_nmos1v nmos level=49 
 +                lmin =			 0.0                 lmax =                  1.0                 wmin =                  0.0 
 +                wmax =                  1.0                 tnom =                 25.0              version =                  3.2 
 +                 tox =           s1v_tox_ne                 toxm =           s1v_tox_ne                   xj =            s1v_xj_ne 
 +                 nch =           s1v_nch_ne                  lln =            1.0000000                  lwn =            1.0000000 
 +                 wln =            1.0000000                  wwn =           -1.0000000                 lint =          s1v_lint_ne 
 +                  ll =                 0.00                   lw =                 0.00                  lwl =                 0.00 
 +                wint =          s1v_wint_ne                   wl =                 0.00                   ww =                 0.00 
 +                 wwl =                 0.00               mobmod =                    1              binunit =                    2 
 +                  xl =                    0                   xw =                    0                  dwg =                 0.00 
 +                 dwb =                 0.00                  acm =                   12                 ldif =          s1v_ldif_ne 
 +                hdif =          s1v_hdif_ne                  rsh =           s1v_rsh_ne                   rd =            s1v_rd_ne 
 +                  rs =            s1v_rs_ne                  rsc =           s1v_rsc_ne                  rdc =           s1v_rdc_ne 
 +                vth0 =          s1v_vth0_ne                   k1 =            s1v_k1_ne                   k2 =            s1v_k2_ne 
 +                  k3 =           -2.3000000                 dvt0 =              3.86366                 dvt1 =                  1.2 
 +                dvt2 =        5.0299990e-02                dvt0w =                 0.00                dvt1w =                 0.00 
 +               dvt2w =                 0.00                  nlx =        1.2517999e-07                   w0 =       -7.1353000e-09 
 +                 k3b =            0.5576769                ngate =               4.0e20                 vsat =          s1v_vsat_ne 
 +                  ua =       -6.1879500e-10                   ub =        1.8806652e-18                   uc =        1.3823546e-10 
 +                rdsw =          s1v_rdsw_ne                 prwb =                 0.00                 prwg =                 0.00 
 +                  wr =            1.0000000                   u0 =            s1v_u0_ne                   a0 =            2.3750000 
 +                keta =       -3.1429991e-02                   a1 =                 0.00                   a2 =            0.9900000 
 +                 ags =            0.8900000                   b0 =                 0.00                   b1 =                 0.00 
 +                voff =       -9.6776000e-02              nfactor =            1.0200000                  cit =       -8.6656060e-04 
 +                cdsc =        4.4460000e-02                cdscb =        1.0565110e-02                cdscd =                 0.00 
 +                eta0 =        7.6580000e-02                 etab =       -3.4998000e-02                 dsub =            0.2200000 
 +                pclm =            1.5488822              pdiblc1 =                 0.00              pdiblc2 =        2.4648249e-02 
 +             pdiblcb =                 0.00                drout =                 0.00               pscbe1 =         9.2648200e08 
 +              pscbe2 =        1.0000000e-20                 pvag =                 0.00                delta =        7.5000000e-03 
 +              alpha0 =                 0.00               alpha1 =               0.0177                beta0 =               6.3203 
 +                 kt1 =                -0.13                  kt2 =               -0.042                   at =         9.0000000e04 
 +                 ute =           -1.7303560                  ua1 =        1.8035814e-09                  ub1 =       -2.1874742e-18 
 +                 uc1 =           s1v_uc1_ne                 kt1l =                 0.00                  prt =           s1v_prt_ne 
 +                  cj =            s1v_cj_ne                   mj =                0.222                   pb =            s1v_pb_ne 
 +                cjsw =          s1v_cjsw_ne                 mjsw =                 0.01                 pbsw =                  0.1 
 +               cjswg =         s1v_cjswg_ne                mjswg =               0.5028                pbswg =               0.6859 
 +                 tpb =             1.30e-03                tpbsw =               0.0000               tpbswg =             2.81e-03 
 +                 tcj =             7.61e-04                tcjsw =             1.04e-03               tcjswg =             1.63e-03 
 +                  js =            s1v_js_ne                  jsw =           s1v_jsw_ne                    n =                    1 
 +                 xti =                    3                 cgdo =          s1v_cgdo_ne                 cgso =          s1v_cgdo_ne 
 +                cgbo =          s1v_cgbo_ne               capmod =                    2               nqsmod =                    0 
 +                 elm =                    5                xpart =                    1                 cgsl =          s1v_cgsl_ne 
 +                cgdl =          s1v_cgsl_ne               ckappa =        s1v_ckappa_ne                   cf =            s1v_cf_ne 
 +                 clc =        1.0000000e-07                  cle =            0.6000000                  dlc =             1.89e-08 
 +                 dwc =             1.62e-08                  llc =             1.53e-16                  lwc =             -9.0e-16 
 +                 wlc =                    0                  wwc =              -0.0989                 lwlc =                    0 
 +                wwlc =                    0                 acde =                  0.5                 moin =                 10.5 
 +                noff =                 1.85               voffcv =               -0.048              lvoffcv =              2.0e-09 
 +             calcacm =                    1             sfvtflag =                    0                 tlev =                    1 
 +               tlevc =                    1                 ijth =                 0.01 
  **warning** (/home/ff/ee141/MODELS/gpdk090_mos.sp:810)  model gpdk090_nmos1v  device geometries will not be checked against the limits set bylmin, lmax, wmin and wmax. To enable this check, add a period(.)to the model name(i.e. enable model selector).
 .model gpdk090_pmos1v pmos level=49 
 +	         lmin =			 0.0                 lmax =                  1.0                 wmin =                  0.0 
 +                wmax =                  1.0                 tnom =                 25.0              version =                  3.2 
 +                 tox =           s1v_tox_pe                 toxm =           s1v_tox_pe                   xj =            s1v_xj_pe 
 +                 nch =         1.7200001e17                  lln =            1.0000000                  lwn =            1.0000000 
 +                 wln =            1.0000000                  wwn =           -1.0000000                 lint =          s1v_lint_pe 
 +                  ll =                 0.00                   lw =                 0.00                  lwl =                 0.00 
 +                wint =          s1v_wint_pe                   wl =                 0.00                   ww =                 0.00 
 +                 wwl =                 0.00               mobmod =                    1              binunit =                    2 
 +                  xl =                    0                   xw =                    0                  dwg =                 0.00 
 +                 dwb =                 0.00                  acm =                   12                 ldif =          s1v_ldif_pe 
 +                hdif =          s1v_hdif_pe                  rsh =           s1v_rsh_pe                   rd =            s1v_rd_pe 
 +                  rs =            s1v_rs_pe                  rsc =           s1v_rsc_pe                  rdc =           s1v_rdc_pe 
 +                vth0 =          s1v_vth0_pe                pvth0 =                    0                   k1 =            s1v_k1_pe 
 +                  k2 =            s1v_k2_pe                   k3 =           -0.5000000                 dvt0 =                  8.0 
 +                dvt1 =                 2.07                 dvt2 =            0.1000000                dvt0w =                 0.00 
 +               dvt1w =                 0.00                dvt2w =                 0.00                  nlx =        2.2400000e-07 
 +                  w0 =                 0.00                  k3b =        7.0000000e-02                ngate =         9.3200000e19 
 +                vsat =          s1v_vsat_pe                   ua =       -2.7643932e-10                   ub =        2.2546092e-18 
 +                  uc =        1.6265005e-10                 rdsw =          s1v_rdsw_pe                 prwb =                 0.00 
 +                prwg =                 0.00                   wr =            1.0000000                   u0 =            s1v_u0_pe 
 +                  a0 =            2.9669099                 keta =       -8.2015020e-02                   a1 =                 0.00 
 +                  a2 =            1.0000000                  ags =            1.2279299                   b0 =                 0.00 
 +                  b1 =                 0.00                 voff =           -0.1170768              nfactor =            1.0000000 
 +                 cit =       -2.5695576e-03                 cdsc =                 0.00                cdscb =                 0.00 
 +               cdscd =                 0.00                 eta0 =        5.0000000e-02                leta0 =                    0 
 +                etab =                    0                 dsub =            0.3000000                 pclm =            1.0000000 
 +             pdiblc1 =        6.0000000e-03              pdiblc2 =        5.0000000e-03              pdiblcb =           -0.5267781 
 +               drout =                 0.00               pscbe1 =         5.1300000e08               pscbe2 =        4.8900000e-07 
 +                pvag =                 0.00                delta =        9.9999990e-03               alpha0 =                 0.00 
 +              alpha1 =                0.001                beta0 =                  7.6                  kt1 =                -0.11 
 +                 kt2 =        4.4329650e-02                   at =         1.0000000e04                  ute =           -1.4468272 
 +                 ua1 =        1.2158887e-09                  ub1 =       -4.0489830e-18                  uc1 =       -5.6549980e-10 
 +                kt1l =                 0.00                  prt =                    0                   cj =            s1v_cj_pe 
 +                  mj =                0.331                   pb =            s1v_pb_pe                 cjsw =          s1v_cjsw_pe 
 +                mjsw =                 0.01                 pbsw =                 0.10                cjswg =         s1v_cjswg_pe 
 +               mjswg =               0.7833                pbswg =               0.8137                  tpb =              0.00173 
 +               tpbsw =                  0.0               tpbswg =               0.0044                  tcj =             0.000949 
 +               tcjsw =            0.0000758               tcjswg =              0.00388                   js =            s1v_js_pe 
 +                 jsw =           s1v_jsw_pe                    n =                    1                  xti =                    3 
 +                cgdo =          s1v_cgdo_pe                 cgso =          s1v_cgdo_pe                 cgbo =          s1v_cgbo_pe 
 +              capmod =                    2               nqsmod =                    0                  elm =                    5 
 +               xpart =                    1                 cgsl =          s1v_cgsl_pe                 cgdl =          s1v_cgsl_pe 
 +              ckappa =        s1v_ckappa_pe                   cf =            s1v_cf_pe                  clc =        1.0000000e-07 
 +                 cle =            0.6000000                  dlc =            2.252e-08                  dwc =           1.2404e-08 
 +                 llc =             -1.2e-16                  lwc =             -6.2e-16                  wlc =                    0 
 +                 wwc =                -0.15                 lwlc =                    0                 wwlc =                    0 
 +                acde =                  0.5                 moin =                 15.6                 noff =                 2.16 
 +              voffcv =              -0.0385              lvoffcv =            -3.80e-09                lnoff =             7.50e-08 
 +             calcacm =                    1             sfvtflag =                    0                 tlev =                    1 
 +               tlevc =                    1                 ijth =                 0.01 
  **warning** (/home/ff/ee141/MODELS/gpdk090_mos.sp:860)  model gpdk090_pmos1v  device geometries will not be checked against the limits set bylmin, lmax, wmin and wmax. To enable this check, add a period(.)to the model name(i.e. enable model selector).
 .endl s1v_mos
 .param
 +           s1v_rs_ne =        0.000000e+000          s1v_vsat_ne =        1.120000e+005        s1v_pldd_surf =        6.000000e+019 
 +          s1v_uc1_ne =        3.700000e-010            s1v_u0_ne =        2.000000e-002           s1v_nch_ne =        5.200000e+017 
 +          s1v_rsc_ne =        4.082483e-014          s1v_cgbo_ne =        1.482000e-011           s1v_prt_ne =        1.000000e+001 
 +          s1v_rdc_ne =        4.082483e-014          s1v_vth0_ne =        1.692662e-001            s1v_k2_ne =        0.000000e+000 
 +         s1v_cgdo_ne =        2.667600e-010        s1v_ckappa_ne =        4.605336e+000          s1v_wint_ne =        6.000000e-009 
 +           s1v_k1_ne =        2.825346e-001          s1v_cgsl_ne =        1.111500e-010        s1v_nldd_surf =        3.000000e+019 
 +           s1v_js_ne =        3.366667e-006          s1v_hdif_ne =        1.400000e-007          s1v_rdsw_ne =        3.900000e-006 
 +          s1v_jsw_ne =        3.366667e-010           s1v_tox_ne =        2.330000e-009            s1v_cj_ne =        7.983537e-004 
 +         s1v_cjsw_ne =        4.790122e-011          s1v_ldif_ne =        1.000000e-008            s1v_xj_ne =        2.500000e-008 
 +           s1v_rd_ne =        0.000000e+000            s1v_pb_ne =        9.918524e-001            s1v_cf_ne =        4.594612e-011 
 +         s1v_lint_ne =        1.500000e-008         s1v_cjswg_ne =        1.995884e-011           s1v_rsh_ne =        1.000000e+001 
 +           s1v_u0_pe =        1.200000e-002           s1v_nch_pe =        4.000000e+017           s1v_rsc_pe =        2.886751e-014 
 +         s1v_cgbo_pe =        1.392363e-011           s1v_rdc_pe =        2.886751e-014          s1v_vth0_pe =       -1.359511e-001 
 +           s1v_k2_pe =        0.000000e+000          s1v_cgdo_pe =        2.506253e-010        s1v_ckappa_pe =        1.043477e+001 
 +         s1v_wint_pe =        5.000000e-009            s1v_k1_pe =        2.637520e-001          s1v_cgsl_pe =        1.044272e-010 
 +           s1v_js_pe =        3.350000e-006          s1v_hdif_pe =        1.400000e-007          s1v_rdsw_pe =        7.800000e-006 
 +          s1v_jsw_pe =        3.350000e-010           s1v_tox_pe =        2.480000e-009            s1v_cj_pe =        7.912252e-004 
 +         s1v_cjsw_pe =        4.747351e-011          s1v_ldif_pe =        1.000000e-008            s1v_xj_pe =        2.500000e-008 
 +           s1v_rd_pe =        0.000000e+000            s1v_pb_pe =        1.009805e+000            s1v_cf_pe =        4.527118e-011 
 +         s1v_lint_pe =        1.500000e-008         s1v_cjswg_pe =        1.978063e-011           s1v_rsh_pe =        2.000000e+001 
 +           s1v_rs_pe =        0.000000e+000          s1v_vsat_pe =        1.000000e+005 
 .endl tt_s1v

 ** include your mux and vertical logic block here
 .include 'muxverticallogic.sp'
 ** library name: sram
 ** cell name: inv_1x
 ** view name: schematic
 .subckt inv_1x in out
 mpm0 out in vdd! vdd! gpdk090_pmos1v l=100e-9 w=240e-9 ad=67.2e-15 as=67.2e-15 pd=1.04e-6 ps=1.04e-6 m=1
 mnm0 out in 0 0 gpdk090_nmos1v l=100e-9 w=120e-9 ad=69.6e-15 as=69.6e-15 pd=1.16e-6 ps=1.16e-6 m=1
 .ends inv_1x
 ** end of subcircuit definition.

 ** library name: sram
 ** cell name: mux2
 ** view name: schematic
 .subckt mux2 sel selb in0 in1 out
 mnm4 out net49 0 0 gpdk090_nmos1v l=100e-9 w=120e-9 ad=69.6e-15 as=69.6e-15 pd=1.16e-6 ps=1.16e-6 m=1
 mnm2 net32 in0 0 0 gpdk090_nmos1v l=100e-9 w=120e-9 ad=69.6e-15 as=69.6e-15 pd=1.16e-6 ps=1.16e-6 m=1
 mnm1 net36 sel net49 0 gpdk090_nmos1v l=100e-9 w=120e-9 ad=69.6e-15 as=69.6e-15 pd=1.16e-6 ps=1.16e-6 m=1
 mnm3 net36 in1 0 0 gpdk090_nmos1v l=100e-9 w=120e-9 ad=69.6e-15 as=69.6e-15 pd=1.16e-6 ps=1.16e-6 m=1
 mnm0 net32 selb net49 0 gpdk090_nmos1v l=100e-9 w=120e-9 ad=69.6e-15 as=69.6e-15 pd=1.16e-6 ps=1.16e-6 m=1
 mpm4 out net49 vdd! vdd! gpdk090_pmos1v l=100e-9 w=240e-9 ad=67.2e-15 as=67.2e-15 pd=1.04e-6 ps=1.04e-6 m=1
 mpm2 net32 in0 vdd! vdd! gpdk090_pmos1v l=100e-9 w=240e-9 ad=67.2e-15 as=67.2e-15 pd=1.04e-6 ps=1.04e-6 m=1
 mpm1 net49 selb net36 vdd! gpdk090_pmos1v l=100e-9 w=240e-9 ad=67.2e-15 as=67.2e-15 pd=1.04e-6 ps=1.04e-6 m=1
 mpm3 net36 in1 vdd! vdd! gpdk090_pmos1v l=100e-9 w=240e-9 ad=67.2e-15 as=67.2e-15 pd=1.04e-6 ps=1.04e-6 m=1
 mpm0 net49 sel net32 vdd! gpdk090_pmos1v l=100e-9 w=240e-9 ad=67.2e-15 as=67.2e-15 pd=1.04e-6 ps=1.04e-6 m=1
 .ends mux2
 ** end of subcircuit definition.

 ** library name: sram
 ** cell name: 5_6_lut_output_decoder
 ** view name: schematic
 .subckt sram_5_6_lut_output_decoder_schematic in4 in5 l0 l1 l2 l3 o5 o6
 xi3 in5 net13 inv_1x
 xi4 in4 net23 inv_1x
 xi2 in5 net13 o5 net17 o6 mux2
 xi1 in4 net23 l2 l3 net17 mux2
 xi0 in4 net23 l0 l1 o5 mux2
 .ends sram_5_6_lut_output_decoder_schematic
 ** end of subcircuit definition.

 ** library name: sram
 ** cell name: xor
 ** view name: schematic
 .subckt xor a abar b bbar out
 mpm3 net21 abar vdd! vdd! gpdk090_pmos1v l=100e-9 w=480e-9 ad=134.4e-15 as=134.4e-15 pd=1.52e-6 ps=1.52e-6 m=1
 mpm2 net21 bbar vdd! vdd! gpdk090_pmos1v l=100e-9 w=480e-9 ad=134.4e-15 as=134.4e-15 pd=1.52e-6 ps=1.52e-6 m=1
 mpm1 out b net21 vdd! gpdk090_pmos1v l=100e-9 w=480e-9 ad=134.4e-15 as=134.4e-15 pd=1.52e-6 ps=1.52e-6 m=1
 mpm0 out a net21 vdd! gpdk090_pmos1v l=100e-9 w=480e-9 ad=134.4e-15 as=134.4e-15 pd=1.52e-6 ps=1.52e-6 m=1
 mnm3 net22 bbar 0 0 gpdk090_nmos1v l=100e-9 w=240e-9 ad=67.2e-15 as=67.2e-15 pd=1.04e-6 ps=1.04e-6 m=1
 mnm2 net26 b 0 0 gpdk090_nmos1v l=100e-9 w=240e-9 ad=67.2e-15 as=67.2e-15 pd=1.04e-6 ps=1.04e-6 m=1
 mnm1 out abar net22 0 gpdk090_nmos1v l=100e-9 w=240e-9 ad=67.2e-15 as=67.2e-15 pd=1.04e-6 ps=1.04e-6 m=1
 mnm0 out a net26 0 gpdk090_nmos1v l=100e-9 w=240e-9 ad=67.2e-15 as=67.2e-15 pd=1.04e-6 ps=1.04e-6 m=1
 .ends xor
 ** end of subcircuit definition.

 ** library name: sram
 ** cell name: mux_vertical_logic_sub
 ** view name: schematic
 .subckt mux_vertical_logic_sub cin cout o5 o6 inputx out_0 sout0 sout1
 xi5 o6 net52 cin net48 net42 xor
 xi12 sout1 net57 inv_1x
 xi10 sout0 net46 inv_1x
 xi7 cin net48 inv_1x
 xi1 o6 net72 inv_1x
 xi6 o6 net52 inv_1x
 xi11 sout1 net57 net66 net61 out_0 mux2
 xi9 sout0 net46 net42 cout net61 mux2
 xi8 sout0 net46 o5 inputx net66 mux2
 xi0 o6 net72 o5 cin cout mux2
 .ends mux_vertical_logic_sub
 ** end of subcircuit definition.

 ** library name: sram
 ** cell name: mux_vertical_logic
 ** view name: schematic
 .subckt mux_vertical_logic asout0 asout1 ax bsout0 bsout1 bx cin cout csout0 csout1 cx dsout0 dsout1 ina4 ina5 inb4 inb5 inc4 inc5 ind4 ind5 l0 l1 l10 l11 l12 l13 l14 l15 l2 l3 l4 l5 l6 l7 l8 l9 out0 out1 out2 out3 out4 out5 out6 out7
 xi17 cx net166 inv_1x
 xi16 bx net171 inv_1x
 xi15 ax net161 inv_1x
 xi13 ax net161 out1 out3 net233 mux2
 xi12 bx net171 out5 out7 net206 mux2
 xi14 cx net166 net233 net206 net224 mux2
 xi11 ind4 ind5 l12 l13 l14 l15 net179 out7 sram_5_6_lut_output_decoder_schematic
 xi10 inc4 inc5 l8 l9 l10 l11 net187 out5 sram_5_6_lut_output_decoder_schematic
 xi9 inb4 inb5 l4 l5 l6 l7 net195 out3 sram_5_6_lut_output_decoder_schematic
 xi8 ina4 ina5 l0 l1 l2 l3 net203 out1 sram_5_6_lut_output_decoder_schematic
 xi4 cin net227 net179 out7 net206 out6 dsout0 dsout1 mux_vertical_logic_sub
 xi7 net218 cout net203 out1 net0241 out0 asout0 asout1 mux_vertical_logic_sub
 xi5 net227 net236 net187 out5 net224 out4 csout0 csout1 mux_vertical_logic_sub
 xi6 net236 net218 net195 out3 net233 out2 bsout0 bsout1 mux_vertical_logic_sub
 .ends mux_vertical_logic
 ** end of subcircuit definition.

 ** if you use a global vdd in muxverticallogic.sp, you need to add the
 ** following syntax
 .global vdd! 0
 vdd vdd! 0 dc vdd_val

 ** or if vdd is an input
 * vdd vdd 0 dc vdd_val

 ** wire the inputs l<15:0>, ina<5:4>, inb<5:4>, inc<5:4>, ind<5:4>, ax, bx,
 ** cx, cin, asout<1:0>, bsout<1:0>, csout<1:0>, dsout<1:0>, and outputs
 ** out<8:0>, cout, to an instance of your mux/vertical logic block here. only
 ** the names at this level of the deck need to be as you see them here. make
 ** sure to order the inputs in accordance to the order of your implementation.

 ** mux / vertical logic block **
 vin in 0 pulse 0 1.2 200ps 2ps 2ps 10ns 20ns
 xmvb vdd! vdd! vdd! vdd! vdd! vdd! in cout vdd! vdd! vdd! vdd! vdd! vdd! vdd! vdd! vdd! vdd! vdd! vdd! vdd! vdd! vdd! vdd! vdd! vdd! vdd! vdd! vdd! vdd! vdd! vdd! vdd! vdd! vdd! vdd! vdd! out<0> out<1> out<2> out<3> out<4> out<5> out<6> out<7> mux_vertical_logic
 ** arrange these inputs in the order your subckt dictates
 *+ l<15> l<14> ... l<1> l<0>
 *+ ina<5> ina<4> ... ind<5> ind<4>
 *+ asout<1> asout<0> ... dsout<1> dsout<0> 
 *+ ax bx cx cin
 *+ out<8> out<7> ... out<1> out<0>
 *+ cout

 ** load caps **
 cout0 out<0> 0 capval
 cout1 out<1> 0 capval
 cout2 out<2> 0 capval
 cout3 out<3> 0 capval
 cout4 out<4> 0 capval
 cout5 out<5> 0 capval
 cout6 out<6> 0 capval
 cout7 out<7> 0 capval
 ccout cout 0 capval

 ** dummy caps - used for verification **
 cdum0 out_exp<0> 0 capval
 cdum1 out_exp<1> 0 capval
 cdum2 out_exp<2> 0 capval
 cdum3 out_exp<3> 0 capval
 cdum4 out_exp<4> 0 capval
 cdum5 out_exp<5> 0 capval
 cdum6 out_exp<6> 0 capval
 cdum7 out_exp<7> 0 capval
 cdumc cout_exp 0 capval

 ** control info **
 .options post=2 nomod
 .op

 ** transient simulation
 .tran .1ns 40ns
 .meas tran tphl trig v(in) val = 0.6 rise = 1 targ v(out<0>) val = 0.6 rise = 2
 .meas tran tplh trig v(in) val = 0.6 fall = 1 targ v(out<0>) val = 0.6 fall = 2
 .end

 ***********************************************************************
 ** runlvl is invoked, you can disable it by:
      a) Add option runlvl=0 to your current simulation job.
      b) Copy $installdir/hspice.ini to your HOME directory and
         customize it by adding option runlvl=0, which disables
         it for all of your simulation jobs.
      c) Re-invoke $installdir/bin/config program and unselect the
         option runlvl setting in box 'hspice.ini' which disables
         it for whole group simulation jobs.

 ** runlvl is invoked, some options are ignored or automatically set:
      Options below are automatically set(user setting will overwrite them):
      if runlvl=[1|2|3|4|5|6],  .option bypass=2

      Options below are ignored, they are replaced by automated algorithms:
        lvltim    dvdt      ft    fast   trtol  absvar  relvar
          relq  chgtol    dvtr    imin    itl3    rmax

 ** runlvl is invoked, actual option value used by HSPICE are:
       runlvl= 3       bypass= 2      mbypass=   2.00   bytol= 100.00u
 ***********************************************************************

1****** HSPICE -- A-2008.03-SP1 32-BIT (May 26 2008) linux ******               
 ******  
 ** ee 141 term project fall 2012 phase ii - mux and vertical logic block **

  ******  circuit name directory
 circuit number to circuit name directory
   number circuitname                     definition         multiplier
        0 main circuit
        1 xmvb.                           mux_vertical_logic
                                                                 1.00 
        2 xmvb.xi17.                      inv_1x             1.00 
        3 xmvb.xi16.                      inv_1x             1.00 
        4 xmvb.xi15.                      inv_1x             1.00 
        5 xmvb.xi13.                      mux2               1.00 
        6 xmvb.xi12.                      mux2               1.00 
        7 xmvb.xi14.                      mux2               1.00 
        8 xmvb.xi11.                      sram_5_6_lut_output_decoder_schematic
                                                                 1.00 
        9 xmvb.xi10.                      sram_5_6_lut_output_decoder_schematic
                                                                 1.00 
       10 xmvb.xi9.                       sram_5_6_lut_output_decoder_schematic
                                                                 1.00 
       11 xmvb.xi8.                       sram_5_6_lut_output_decoder_schematic
                                                                 1.00 
       12 xmvb.xi4.                       mux_vertical_logic_sub
                                                                 1.00 
       13 xmvb.xi7.                       mux_vertical_logic_sub
                                                                 1.00 
       14 xmvb.xi5.                       mux_vertical_logic_sub
                                                                 1.00 
       15 xmvb.xi6.                       mux_vertical_logic_sub
                                                                 1.00 
       16 xmvb.xi11.xi3.                  inv_1x             1.00 
       17 xmvb.xi11.xi4.                  inv_1x             1.00 
       18 xmvb.xi11.xi2.                  mux2               1.00 
       19 xmvb.xi11.xi1.                  mux2               1.00 
       20 xmvb.xi11.xi0.                  mux2               1.00 
       21 xmvb.xi10.xi3.                  inv_1x             1.00 
       22 xmvb.xi10.xi4.                  inv_1x             1.00 
       23 xmvb.xi10.xi2.                  mux2               1.00 
       24 xmvb.xi10.xi1.                  mux2               1.00 
       25 xmvb.xi10.xi0.                  mux2               1.00 
       26 xmvb.xi9.xi3.                   inv_1x             1.00 
       27 xmvb.xi9.xi4.                   inv_1x             1.00 
       28 xmvb.xi9.xi2.                   mux2               1.00 
       29 xmvb.xi9.xi1.                   mux2               1.00 
       30 xmvb.xi9.xi0.                   mux2               1.00 
       31 xmvb.xi8.xi3.                   inv_1x             1.00 
       32 xmvb.xi8.xi4.                   inv_1x             1.00 
       33 xmvb.xi8.xi2.                   mux2               1.00 
       34 xmvb.xi8.xi1.                   mux2               1.00 
       35 xmvb.xi8.xi0.                   mux2               1.00 
       36 xmvb.xi4.xi5.                   xor                1.00 
       37 xmvb.xi4.xi12.                  inv_1x             1.00 
       38 xmvb.xi4.xi10.                  inv_1x             1.00 
       39 xmvb.xi4.xi7.                   inv_1x             1.00 
       40 xmvb.xi4.xi1.                   inv_1x             1.00 
       41 xmvb.xi4.xi6.                   inv_1x             1.00 
       42 xmvb.xi4.xi11.                  mux2               1.00 
       43 xmvb.xi4.xi9.                   mux2               1.00 
       44 xmvb.xi4.xi8.                   mux2               1.00 
       45 xmvb.xi4.xi0.                   mux2               1.00 
       46 xmvb.xi7.xi5.                   xor                1.00 
       47 xmvb.xi7.xi12.                  inv_1x             1.00 
       48 xmvb.xi7.xi10.                  inv_1x             1.00 
       49 xmvb.xi7.xi7.                   inv_1x             1.00 
       50 xmvb.xi7.xi1.                   inv_1x             1.00 
       51 xmvb.xi7.xi6.                   inv_1x             1.00 
       52 xmvb.xi7.xi11.                  mux2               1.00 
       53 xmvb.xi7.xi9.                   mux2               1.00 
       54 xmvb.xi7.xi8.                   mux2               1.00 
       55 xmvb.xi7.xi0.                   mux2               1.00 
       56 xmvb.xi5.xi5.                   xor                1.00 
       57 xmvb.xi5.xi12.                  inv_1x             1.00 
       58 xmvb.xi5.xi10.                  inv_1x             1.00 
       59 xmvb.xi5.xi7.                   inv_1x             1.00 
       60 xmvb.xi5.xi1.                   inv_1x             1.00 
       61 xmvb.xi5.xi6.                   inv_1x             1.00 
       62 xmvb.xi5.xi11.                  mux2               1.00 
       63 xmvb.xi5.xi9.                   mux2               1.00 
       64 xmvb.xi5.xi8.                   mux2               1.00 
       65 xmvb.xi5.xi0.                   mux2               1.00 
       66 xmvb.xi6.xi5.                   xor                1.00 
       67 xmvb.xi6.xi12.                  inv_1x             1.00 
       68 xmvb.xi6.xi10.                  inv_1x             1.00 
       69 xmvb.xi6.xi7.                   inv_1x             1.00 
       70 xmvb.xi6.xi1.                   inv_1x             1.00 
       71 xmvb.xi6.xi6.                   inv_1x             1.00 
       72 xmvb.xi6.xi11.                  mux2               1.00 
       73 xmvb.xi6.xi9.                   mux2               1.00 
       74 xmvb.xi6.xi8.                   mux2               1.00 
       75 xmvb.xi6.xi0.                   mux2               1.00 

 **warning** dc voltage reset to initial transient source value
             in source        0:vin                 new dc=  0.0000D+00

 

 

 **warning** only 1 connection at node        0:cout_exp         defined in subckt 0               
        : called in element     0:cdumc defined in subckt 0                at line    60
          within the hspice source, library or include file.
 related element is ignored, and node is isolated.




 **warning**  no dc path to ground from node        1:net0241          defined in subckt mux_vertical_lognow it is connected with gdcpath


      
  Opening plot unit= 15
 file=delay.pa0                                                                

1****** HSPICE -- A-2008.03-SP1 32-BIT (May 26 2008) linux ******               
 ******  
 ** ee 141 term project fall 2012 phase ii - mux and vertical logic block **

  ******  operating point information tnom=  25.000 temp=  25.000 *****
 ***** operating point status is all       simulation time is     0.     
     node    =voltage       node    =voltage       node    =voltage

 + 0:cout    =   1.3409u  0:cout_exp=   0.       0:in      =   0.     
 + 0:out<0>  =   1.3223u  0:out<1>  =   1.1998   0:out<2>  =   1.3409u
 + 0:out<3>  =   1.1998   0:out<4>  =   1.3409u  0:out<5>  =   1.1998 
 + 0:out<6>  =   1.3409u  0:out<7>  =   1.1998   0:out_exp<=   0.     
 + 0:out_exp<=   0.       0:out_exp<=   0.       0:out_exp<=   0.     
 + 0:out_exp<=   0.       0:out_exp<=   0.       0:out_exp<=   0.     
 + 0:out_exp<=   0.       0:vdd!    =   1.2000   1:net0241 =   0.     
 + 1:net161  =   1.3131u  1:net166  =   1.3131u  1:net171  =   1.3131u
 + 1:net179  =   1.1998   1:net187  =   1.1998   1:net195  =   1.1998 
 + 1:net203  =   1.1998   1:net206  =   1.1998   1:net218  =   1.3409u
 + 1:net224  =   1.1998   1:net227  =   1.3409u  1:net233  =   1.1998 
 + 1:net236  =   1.3409u  5:net32   =   1.3261u  5:net36   =   1.3336u
 + 5:net49   =   1.3412u  6:net32   =   1.3261u  6:net36   =   1.3336u
 + 6:net49   =   1.3412u  7:net32   =   1.3261u  7:net36   =   1.3336u
 + 7:net49   =   1.3412u  8:net13   =   1.3131u  8:net17   =   1.1998 
 + 8:net23   =   1.3131u  9:net13   =   1.3131u  9:net17   =   1.1998 
 + 9:net23   =   1.3131u 10:net13   =   1.3131u 10:net17   =   1.1998 
 +10:net23   =   1.3131u 11:net13   =   1.3131u 11:net17   =   1.1998 
 +11:net23   =   1.3131u 12:net42   =   1.1997  12:net46   =   1.3131u
 +12:net48   =   1.1998  12:net52   =   1.3223u 12:net57   =   1.3131u
 +12:net61   =   1.3409u 12:net66   =   1.1998  12:net72   =   1.3223u
 +13:net42   =   1.1997  13:net46   =   1.3131u 13:net48   =   1.1998 
 +13:net52   =   1.3223u 13:net57   =   1.3131u 13:net61   =   1.3409u
 +13:net66   =   1.3409u 13:net72   =   1.3223u 14:net42   =   1.1997 
 +14:net46   =   1.3131u 14:net48   =   1.1998  14:net52   =   1.3223u
 +14:net57   =   1.3131u 14:net61   =   1.3409u 14:net66   =   1.1998 
 +14:net72   =   1.3223u 15:net42   =   1.1997  15:net46   =   1.3131u
 +15:net48   =   1.1998  15:net52   =   1.3223u 15:net57   =   1.3131u
 +15:net61   =   1.3409u 15:net66   =   1.1998  15:net72   =   1.3223u
 +18:net32   =   1.3261u 18:net36   =   1.3336u 18:net49   =   1.3412u
 +19:net32   =   1.3169u 19:net36   =   1.3244u 19:net49   =   1.3320u
 +20:net32   =   1.3169u 20:net36   =   1.3244u 20:net49   =   1.3320u
 +23:net32   =   1.3261u 23:net36   =   1.3336u 23:net49   =   1.3412u
 +24:net32   =   1.3169u 24:net36   =   1.3244u 24:net49   =   1.3320u
 +25:net32   =   1.3169u 25:net36   =   1.3244u 25:net49   =   1.3320u
 +28:net32   =   1.3261u 28:net36   =   1.3336u 28:net49   =   1.3412u
 +29:net32   =   1.3169u 29:net36   =   1.3244u 29:net49   =   1.3320u
 +30:net32   =   1.3169u 30:net36   =   1.3244u 30:net49   =   1.3320u
 +33:net32   =   1.3261u 33:net36   =   1.3336u 33:net49   =   1.3412u
 +34:net32   =   1.3169u 34:net36   =   1.3244u 34:net49   =   1.3320u
 +35:net32   =   1.3169u 35:net36   =   1.3244u 35:net49   =   1.3320u
 +36:net21   =   1.1999  36:net22   =  79.8022u 36:net26   =   1.0114 
 +42:net32   = 146.0469u 42:net36   =   1.1997  42:net49   =   1.1995 
 +43:net32   = 146.0623u 43:net36   =   1.1997  43:net49   =   1.1995 
 +44:net32   =   1.3261u 44:net36   =   1.3336u 44:net49   =   1.3412u
 +45:net32   = 146.0558u 45:net36   =   1.1997  45:net49   =   1.1995 
 +46:net21   =   1.1999  46:net22   =  79.8022u 46:net26   =   1.0114 
 +52:net32   =   1.1998  52:net36   =   1.1998  52:net49   =   1.1998 
 +53:net32   = 146.0623u 53:net36   =   1.1997  53:net49   =   1.1995 
 +54:net32   = 146.0469u 54:net36   =   1.1997  54:net49   =   1.1995 
 +55:net32   = 146.0558u 55:net36   =   1.1997  55:net49   =   1.1995 
 +56:net21   =   1.1999  56:net22   =  79.8022u 56:net26   =   1.0114 
 +62:net32   = 146.0469u 62:net36   =   1.1997  62:net49   =   1.1995 
 +63:net32   = 146.0623u 63:net36   =   1.1997  63:net49   =   1.1995 
 +64:net32   =   1.3261u 64:net36   =   1.3336u 64:net49   =   1.3412u
 +65:net32   = 146.0558u 65:net36   =   1.1997  65:net49   =   1.1995 
 +66:net21   =   1.1999  66:net22   =  79.8022u 66:net26   =   1.0114 
 +72:net32   = 146.0469u 72:net36   =   1.1997  72:net49   =   1.1995 
 +73:net32   = 146.0623u 73:net36   =   1.1997  73:net49   =   1.1995 
 +74:net32   =   1.3261u 74:net36   =   1.3336u 74:net49   =   1.3412u
 +75:net32   = 146.0558u 75:net36   =   1.1997  75:net49   =   1.1995 


 ****  voltage sources

 subckt                          
 element   0:vdd       0:vin     
  volts       1.2000      0.     
  current    -2.5530u     0.     
  power       3.0636u     0.     

     total voltage source power dissipation=    3.0636u       watts




 **** mosfets


 subckt    xmvb.xi17   xmvb.xi17   xmvb.xi16   xmvb.xi16   xmvb.xi15 
 element   2:mpm0      2:mnm0      3:mpm0      3:mnm0      4:mpm0    
 model     0:gpdk090_  0:gpdk090_  0:gpdk090_  0:gpdk090_  0:gpdk090_
 region        Cutoff      Linear      Cutoff      Linear      Cutoff
  id       -414.4518p   416.8528p  -414.4518p   416.8528p  -414.4518p
  ibs       6.580e-23  -7.397e-23   6.580e-23  -7.397e-23   6.580e-23
  ibd         1.0157f  -1.990e-20     1.0157f  -1.990e-20     1.0157f
  vgs         0.          1.2000      0.          1.2000      0.     
  vds        -1.2000      1.3131u    -1.2000      1.3131u    -1.2000 
  vbs         0.          0.          0.          0.          0.     
  vth      -222.6094m   238.8494m  -222.6094m   238.8494m  -222.6094m
  vdsat     -41.7924m   467.5921m   -41.7924m   467.5921m   -41.7924m
  vod       222.6094m   961.1506m   222.6094m   961.1506m   222.6094m
  beta      536.6358u   347.3556u   536.6358u   347.3556u   536.6358u
  gam eff   263.7520m   282.5346m   263.7520m   282.5346m   263.7520m
  gm         16.9649n   216.3386p    16.9649n   216.3386p    16.9649n
  gds         1.4614n   319.8331u     1.4614n   319.8331u     1.4614n
  gmb         1.6639n    40.0251p     1.6639n    40.0251p     1.6639n
  cdtot     190.6279a   373.4456a   190.6279a   373.4456a   190.6279a
  cgtot     293.8357a   213.5069a   293.8357a   213.5069a   293.8357a
  cstot     240.2040a   302.3346a   240.2040a   302.3346a   240.2040a
  cbtot     219.2076a   235.2439a   219.2076a   235.2439a   219.2076a
  cgs       146.4587a   113.7326a   146.4587a   113.7326a   146.4587a
  cgd       107.8225a    92.8808a   107.8225a    92.8808a   107.8225a



 subckt    xmvb.xi15   xmvb.xi13   xmvb.xi13   xmvb.xi13   xmvb.xi13 
 element   4:mnm0      5:mnm4      5:mnm2      5:mnm1      5:mnm3    
 model     0:gpdk090_  0:gpdk090_  0:gpdk090_  0:gpdk090_  0:gpdk090_
 region        Linear      Cutoff      Linear      Linear      Linear
  id        416.8528p    45.7586n   420.9379p    -2.4002p   423.3376p
  ibs      -7.397e-23  -8.120e-21  -7.469e-23  -2.040e-20  -7.512e-23
  ibd      -1.990e-20    -3.9740p  -2.009e-20  -2.028e-20  -2.021e-20
  vgs         1.2000      1.3412u     1.1998      1.2000      1.1998 
  vds         1.3131u     1.1998      1.3261u    -7.5605n     1.3336u
  vbs         0.          0.          0.         -1.3412u     0.     
  vth       238.8494m    99.8342m   238.8494m   238.8497m   238.8494m
  vdsat     467.5921m    43.1876m   467.5300m   467.5916m   467.5300m
  vod       961.1506m   -99.8328m   960.9811m   961.1490m   960.9811m
  beta      347.3556u   476.1429u   347.3862u   347.3558u   347.3862u
  gam eff   282.5346m   282.5346m   282.5346m   282.5346m   282.5346m
  gm        216.3386p     1.1049u   218.5517p     1.2457p   219.7976p
  gds       319.8331u   141.2267n   319.8049u   319.8339u   319.8049u
  gmb        40.0251p    32.1663n    40.4243p   230.4615f    40.6547p
  cdtot     373.4456a   140.5424a   373.4436a   302.3347a   373.4436a
  cgtot     213.5069a   132.1935a   213.5075a   213.5069a   213.5075a
  cstot     302.3346a   177.0880a   302.3343a   373.4459a   302.3343a
  cbtot     235.2439a   225.8678a   235.2440a   235.2439a   235.2440a
  cgs       113.7326a    70.9387a   113.7336a    92.8809a   113.7336a
  cgd        92.8808a    41.0921a    92.8803a   113.7325a    92.8803a



 subckt    xmvb.xi13   xmvb.xi13   xmvb.xi13   xmvb.xi13   xmvb.xi13 
 element   5:mnm0      5:mpm4      5:mpm2      5:mpm1      5:mpm3    
 model     0:gpdk090_  0:gpdk090_  0:gpdk090_  0:gpdk090_  0:gpdk090_
 region        Cutoff      Linear      Cutoff      Cutoff      Cutoff
  id       -487.9361a   -45.7650n  -417.3360p   9.767e-21  -417.3360p
  ibs      -2.040e-20   7.245e-21   6.626e-23   348.6251a   6.626e-23
  ibd      -2.017e-20     2.2844a     1.0204f   348.6251a     1.0204f
  vgs       -28.1039n    -1.2000   -169.4375u   -20.5434n  -169.4375u
  vds       -15.1202n  -169.4375u    -1.2000      7.5605n    -1.2000 
  vbs        -1.3412u     0.          0.          1.2000      0.     
  vth       238.8497m  -312.2493m  -222.6094m  -421.2322m  -222.6094m
  vdsat      41.2442m  -527.9821m   -41.7925m   -49.0969m   -41.7925m
  vod      -238.8497m  -887.7494m   222.4399m   421.2321m   222.4399m
  beta      480.2743u   346.4304u   536.6358u   499.1049u   536.6358u
  gam eff   282.5346m   263.7520m   263.7520m   263.7520m   263.7520m
  gm         12.7589f    27.2748n    17.0807n   4.286e-19    17.0807n
  gds        32.2705n   271.7631u     1.4714n     1.2918p     1.4714n
  gmb         1.1878f     5.3453n     1.6751n   4.087e-20     1.6751n
  cdtot     161.9636a   689.1603a   190.6285a   199.3233a   190.6285a
  cgtot     118.5510a   450.2662a   293.8821a   256.4134a   293.8821a
  cstot     166.8602a   504.2679a   240.2591a   202.4770a   240.2591a
  cbtot     236.9822a   229.8858a   219.2019a   186.5787a   219.2019a
  cgs        49.5333a   220.2676a   146.5191a   116.5003a   146.5191a
  cgd        48.6942a   216.4350a   107.8191a   115.0822a   107.8191a



 subckt    xmvb.xi13   xmvb.xi12   xmvb.xi12   xmvb.xi12   xmvb.xi12 
 element   5:mpm0      6:mnm4      6:mnm2      6:mnm1      6:mnm3    
 model     0:gpdk090_  0:gpdk090_  0:gpdk090_  0:gpdk090_  0:gpdk090_
 region        Cutoff      Cutoff      Linear      Linear      Linear
  id          0.         45.7586n   420.9379p    -2.4002p   423.3376p
  ibs       348.6251a  -8.120e-21  -7.469e-23  -2.040e-20  -7.512e-23
  ibd       348.6251a    -3.9740p  -2.009e-20  -2.028e-20  -2.021e-20
  vgs         1.2000      1.3412u     1.1998      1.2000      1.1998 
  vds        15.1202n     1.1998      1.3261u    -7.5605n     1.3336u
  vbs         1.2000      0.          0.         -1.3412u     0.     
  vth      -421.2322m    99.8342m   238.8494m   238.8497m   238.8494m
  vdsat     -49.0969m    43.1876m   467.5300m   467.5916m   467.5300m
  vod         1.6212    -99.8328m   960.9811m   961.1490m   960.9811m
  beta      499.1049u   476.1429u   347.3862u   347.3558u   347.3862u
  gam eff   263.7520m   282.5346m   282.5346m   282.5346m   282.5346m
  gm          0.          1.1049u   218.5517p     1.2457p   219.7976p
  gds         0.        141.2267n   319.8049u   319.8339u   319.8049u
  gmb         0.         32.1663n    40.4243p   230.4615f    40.6547p
  cdtot     190.6274a   140.5424a   373.4436a   302.3347a   373.4436a
  cgtot     262.0978a   132.1935a   213.5075a   213.5069a   213.5075a
  cstot     190.6274a   177.0880a   302.3343a   373.4459a   302.3343a
  cbtot     203.8257a   225.8678a   235.2440a   235.2439a   235.2440a
  cgs       109.8813a    70.9387a   113.7336a    92.8809a   113.7336a
  cgd       109.8828a    41.0921a    92.8803a   113.7325a    92.8803a



 subckt    xmvb.xi12   xmvb.xi12   xmvb.xi12   xmvb.xi12   xmvb.xi12 
 element   6:mnm0      6:mpm4      6:mpm2      6:mpm1      6:mpm3    
 model     0:gpdk090_  0:gpdk090_  0:gpdk090_  0:gpdk090_  0:gpdk090_
 region        Cutoff      Linear      Cutoff      Cutoff      Cutoff
  id       -487.9361a   -45.7650n  -417.3360p   9.767e-21  -417.3360p
  ibs      -2.040e-20   7.245e-21   6.626e-23   348.6251a   6.626e-23
  ibd      -2.017e-20     2.2844a     1.0204f   348.6251a     1.0204f
  vgs       -28.1039n    -1.2000   -169.4375u   -20.5434n  -169.4375u
  vds       -15.1202n  -169.4375u    -1.2000      7.5605n    -1.2000 
  vbs        -1.3412u     0.          0.          1.2000      0.     
  vth       238.8497m  -312.2493m  -222.6094m  -421.2322m  -222.6094m
  vdsat      41.2442m  -527.9821m   -41.7925m   -49.0969m   -41.7925m
  vod      -238.8497m  -887.7494m   222.4399m   421.2321m   222.4399m
  beta      480.2743u   346.4304u   536.6358u   499.1049u   536.6358u
  gam eff   282.5346m   263.7520m   263.7520m   263.7520m   263.7520m
  gm         12.7589f    27.2748n    17.0807n   4.286e-19    17.0807n
  gds        32.2705n   271.7631u     1.4714n     1.2918p     1.4714n
  gmb         1.1878f     5.3453n     1.6751n   4.087e-20     1.6751n
  cdtot     161.9636a   689.1603a   190.6285a   199.3233a   190.6285a
  cgtot     118.5510a   450.2662a   293.8821a   256.4134a   293.8821a
  cstot     166.8602a   504.2679a   240.2591a   202.4770a   240.2591a
  cbtot     236.9822a   229.8858a   219.2019a   186.5787a   219.2019a
  cgs        49.5333a   220.2676a   146.5191a   116.5003a   146.5191a
  cgd        48.6942a   216.4350a   107.8191a   115.0822a   107.8191a



 subckt    xmvb.xi12   xmvb.xi14   xmvb.xi14   xmvb.xi14   xmvb.xi14 
 element   6:mpm0      7:mnm4      7:mnm2      7:mnm1      7:mnm3    
 model     0:gpdk090_  0:gpdk090_  0:gpdk090_  0:gpdk090_  0:gpdk090_
 region        Cutoff      Cutoff      Linear      Linear      Linear
  id          0.         45.7586n   420.9379p    -2.4002p   423.3376p
  ibs       348.6251a  -8.120e-21  -7.469e-23  -2.040e-20  -7.512e-23
  ibd       348.6251a    -3.9740p  -2.009e-20  -2.028e-20  -2.021e-20
  vgs         1.2000      1.3412u     1.1998      1.2000      1.1998 
  vds        15.1202n     1.1998      1.3261u    -7.5605n     1.3336u
  vbs         1.2000      0.          0.         -1.3412u     0.     
  vth      -421.2322m    99.8342m   238.8494m   238.8497m   238.8494m
  vdsat     -49.0969m    43.1876m   467.5300m   467.5916m   467.5300m
  vod         1.6212    -99.8328m   960.9811m   961.1490m   960.9811m
  beta      499.1049u   476.1429u   347.3862u   347.3558u   347.3862u
  gam eff   263.7520m   282.5346m   282.5346m   282.5346m   282.5346m
  gm          0.          1.1049u   218.5517p     1.2457p   219.7976p
  gds         0.        141.2267n   319.8049u   319.8339u   319.8049u
  gmb         0.         32.1663n    40.4243p   230.4615f    40.6547p
  cdtot     190.6274a   140.5424a   373.4436a   302.3347a   373.4436a
  cgtot     262.0978a   132.1935a   213.5075a   213.5069a   213.5075a
  cstot     190.6274a   177.0880a   302.3343a   373.4459a   302.3343a
  cbtot     203.8257a   225.8678a   235.2440a   235.2439a   235.2440a
  cgs       109.8813a    70.9387a   113.7336a    92.8809a   113.7336a
  cgd       109.8828a    41.0921a    92.8803a   113.7325a    92.8803a



 subckt    xmvb.xi14   xmvb.xi14   xmvb.xi14   xmvb.xi14   xmvb.xi14 
 element   7:mnm0      7:mpm4      7:mpm2      7:mpm1      7:mpm3    
 model     0:gpdk090_  0:gpdk090_  0:gpdk090_  0:gpdk090_  0:gpdk090_
 region        Cutoff      Linear      Cutoff      Cutoff      Cutoff
  id       -487.9361a   -45.7650n  -417.3360p   9.767e-21  -417.3360p
  ibs      -2.040e-20   7.245e-21   6.626e-23   348.6251a   6.626e-23
  ibd      -2.017e-20     2.2844a     1.0204f   348.6251a     1.0204f
  vgs       -28.1039n    -1.2000   -169.4375u   -20.5434n  -169.4375u
  vds       -15.1202n  -169.4375u    -1.2000      7.5605n    -1.2000 
  vbs        -1.3412u     0.          0.          1.2000      0.     
  vth       238.8497m  -312.2493m  -222.6094m  -421.2322m  -222.6094m
  vdsat      41.2442m  -527.9821m   -41.7925m   -49.0969m   -41.7925m
  vod      -238.8497m  -887.7494m   222.4399m   421.2321m   222.4399m
  beta      480.2743u   346.4304u   536.6358u   499.1049u   536.6358u
  gam eff   282.5346m   263.7520m   263.7520m   263.7520m   263.7520m
  gm         12.7589f    27.2748n    17.0807n   4.286e-19    17.0807n
  gds        32.2705n   271.7631u     1.4714n     1.2918p     1.4714n
  gmb         1.1878f     5.3453n     1.6751n   4.087e-20     1.6751n
  cdtot     161.9636a   689.1603a   190.6285a   199.3233a   190.6285a
  cgtot     118.5510a   450.2662a   293.8821a   256.4134a   293.8821a
  cstot     166.8602a   504.2679a   240.2591a   202.4770a   240.2591a
  cbtot     236.9822a   229.8858a   219.2019a   186.5787a   219.2019a
  cgs        49.5333a   220.2676a   146.5191a   116.5003a   146.5191a
  cgd        48.6942a   216.4350a   107.8191a   115.0822a   107.8191a



 subckt    xmvb.xi14   xmvb.xi11.  xmvb.xi11.  xmvb.xi11.  xmvb.xi11.
 element   7:mpm0     16:mpm0     16:mnm0     17:mpm0     17:mnm0    
 model     0:gpdk090_  0:gpdk090_  0:gpdk090_  0:gpdk090_  0:gpdk090_
 region        Cutoff      Cutoff      Linear      Cutoff      Linear
  id          0.       -414.4518p   416.8528p  -414.4518p   416.8528p
  ibs       348.6251a   6.580e-23  -7.397e-23   6.580e-23  -7.397e-23
  ibd       348.6251a     1.0157f  -1.990e-20     1.0157f  -1.990e-20
  vgs         1.2000      0.          1.2000      0.          1.2000 
  vds        15.1202n    -1.2000      1.3131u    -1.2000      1.3131u
  vbs         1.2000      0.          0.          0.          0.     
  vth      -421.2322m  -222.6094m   238.8494m  -222.6094m   238.8494m
  vdsat     -49.0969m   -41.7924m   467.5921m   -41.7924m   467.5921m
  vod         1.6212    222.6094m   961.1506m   222.6094m   961.1506m
  beta      499.1049u   536.6358u   347.3556u   536.6358u   347.3556u
  gam eff   263.7520m   263.7520m   282.5346m   263.7520m   282.5346m
  gm          0.         16.9649n   216.3386p    16.9649n   216.3386p
  gds         0.          1.4614n   319.8331u     1.4614n   319.8331u
  gmb         0.          1.6639n    40.0251p     1.6639n    40.0251p
  cdtot     190.6274a   190.6279a   373.4456a   190.6279a   373.4456a
  cgtot     262.0978a   293.8357a   213.5069a   293.8357a   213.5069a
  cstot     190.6274a   240.2040a   302.3346a   240.2040a   302.3346a
  cbtot     203.8257a   219.2076a   235.2439a   219.2076a   235.2439a
  cgs       109.8813a   146.4587a   113.7326a   146.4587a   113.7326a
  cgd       109.8828a   107.8225a    92.8808a   107.8225a    92.8808a



 subckt    xmvb.xi11.  xmvb.xi11.  xmvb.xi11.  xmvb.xi11.  xmvb.xi11.
 element  18:mnm4     18:mnm2     18:mnm1     18:mnm3     18:mnm0    
 model     0:gpdk090_  0:gpdk090_  0:gpdk090_  0:gpdk090_  0:gpdk090_
 region        Cutoff      Linear      Linear      Linear      Cutoff
  id         45.7586n   420.9379p    -2.4002p   423.3376p  -487.9361a
  ibs      -8.120e-21  -7.469e-23  -2.040e-20  -7.512e-23  -2.040e-20
  ibd        -3.9740p  -2.009e-20  -2.028e-20  -2.021e-20  -2.017e-20
  vgs         1.3412u     1.1998      1.2000      1.1998    -28.1039n
  vds         1.1998      1.3261u    -7.5605n     1.3336u   -15.1202n
  vbs         0.          0.         -1.3412u     0.         -1.3412u
  vth        99.8342m   238.8494m   238.8497m   238.8494m   238.8497m
  vdsat      43.1876m   467.5300m   467.5916m   467.5300m    41.2442m
  vod       -99.8328m   960.9811m   961.1490m   960.9811m  -238.8497m
  beta      476.1429u   347.3862u   347.3558u   347.3862u   480.2743u
  gam eff   282.5346m   282.5346m   282.5346m   282.5346m   282.5346m
  gm          1.1049u   218.5517p     1.2457p   219.7976p    12.7589f
  gds       141.2267n   319.8049u   319.8339u   319.8049u    32.2705n
  gmb        32.1663n    40.4243p   230.4615f    40.6547p     1.1878f
  cdtot     140.5424a   373.4436a   302.3347a   373.4436a   161.9636a
  cgtot     132.1935a   213.5075a   213.5069a   213.5075a   118.5510a
  cstot     177.0880a   302.3343a   373.4459a   302.3343a   166.8602a
  cbtot     225.8678a   235.2440a   235.2439a   235.2440a   236.9822a
  cgs        70.9387a   113.7336a    92.8809a   113.7336a    49.5333a
  cgd        41.0921a    92.8803a   113.7325a    92.8803a    48.6942a



 subckt    xmvb.xi11.  xmvb.xi11.  xmvb.xi11.  xmvb.xi11.  xmvb.xi11.
 element  18:mpm4     18:mpm2     18:mpm1     18:mpm3     18:mpm0    
 model     0:gpdk090_  0:gpdk090_  0:gpdk090_  0:gpdk090_  0:gpdk090_
 region        Linear      Cutoff      Cutoff      Cutoff      Cutoff
  id        -45.7650n  -417.3360p   9.767e-21  -417.3360p     0.     
  ibs       7.245e-21   6.626e-23   348.6251a   6.626e-23   348.6251a
  ibd         2.2844a     1.0204f   348.6251a     1.0204f   348.6251a
  vgs        -1.2000   -169.4374u   -20.5434n  -169.4374u     1.2000 
  vds      -169.4375u    -1.2000      7.5605n    -1.2000     15.1202n
  vbs         0.          0.          1.2000      0.          1.2000 
  vth      -312.2493m  -222.6094m  -421.2322m  -222.6094m  -421.2322m
  vdsat    -527.9821m   -41.7925m   -49.0969m   -41.7925m   -49.0969m
  vod      -887.7494m   222.4399m   421.2321m   222.4399m     1.6212 
  beta      346.4304u   536.6358u   499.1049u   536.6358u   499.1049u
  gam eff   263.7520m   263.7520m   263.7520m   263.7520m   263.7520m
  gm         27.2748n    17.0807n   4.286e-19    17.0807n     0.     
  gds       271.7631u     1.4714n     1.2918p     1.4714n     0.     
  gmb         5.3453n     1.6751n   4.087e-20     1.6751n     0.     
  cdtot     689.1603a   190.6285a   199.3233a   190.6285a   190.6274a
  cgtot     450.2662a   293.8821a   256.4134a   293.8821a   262.0978a
  cstot     504.2679a   240.2591a   202.4770a   240.2591a   190.6274a
  cbtot     229.8858a   219.2019a   186.5787a   219.2019a   203.8257a
  cgs       220.2676a   146.5191a   116.5003a   146.5191a   109.8813a
  cgd       216.4350a   107.8191a   115.0822a   107.8191a   109.8828a



 subckt    xmvb.xi11.  xmvb.xi11.  xmvb.xi11.  xmvb.xi11.  xmvb.xi11.
 element  19:mnm4     19:mnm2     19:mnm1     19:mnm3     19:mnm0    
 model     0:gpdk090_  0:gpdk090_  0:gpdk090_  0:gpdk090_  0:gpdk090_
 region        Cutoff      Linear      Linear      Linear      Cutoff
  id         45.7586n   418.0536p    -2.4002p   420.4533p  -487.9149a
  ibs      -8.120e-21  -7.418e-23  -2.026e-20  -7.461e-23  -2.026e-20
  ibd        -3.9740p  -1.995e-20  -2.014e-20  -2.007e-20  -2.003e-20
  vgs         1.3320u     1.2000      1.2000      1.2000    -18.9021n
  vds         1.1998      1.3169u    -7.5605n     1.3244u   -15.1195n
  vbs         0.          0.         -1.3320u     0.         -1.3320u
  vth        99.8342m   238.8494m   238.8497m   238.8494m   238.8497m
  vdsat      43.1876m   467.5921m   467.5916m   467.5921m    41.2442m
  vod       -99.8328m   961.1506m   961.1490m   961.1506m  -238.8497m
  beta      476.1429u   347.3556u   347.3558u   347.3556u   480.2743u
  gam eff   282.5346m   282.5346m   282.5346m   282.5346m   282.5346m
  gm          1.1049u   216.9618p     1.2457p   218.2072p    12.7584f
  gds       141.2267n   319.8331u   319.8339u   319.8331u    32.2705n
  gmb        32.1663n    40.1404p   230.4615f    40.3708p     1.1878f
  cdtot     140.5424a   373.4456a   302.3347a   373.4456a   161.9636a
  cgtot     132.1935a   213.5069a   213.5069a   213.5069a   118.5510a
  cstot     177.0880a   302.3346a   373.4459a   302.3346a   166.8602a
  cbtot     225.8678a   235.2439a   235.2439a   235.2439a   236.9822a
  cgs        70.9387a   113.7326a    92.8809a   113.7326a    49.5333a
  cgd        41.0921a    92.8808a   113.7325a    92.8808a    48.6942a



 subckt    xmvb.xi11.  xmvb.xi11.  xmvb.xi11.  xmvb.xi11.  xmvb.xi11.
 element  19:mpm4     19:mpm2     19:mpm1     19:mpm3     19:mpm0    
 model     0:gpdk090_  0:gpdk090_  0:gpdk090_  0:gpdk090_  0:gpdk090_
 region        Linear      Cutoff      Cutoff      Cutoff      Cutoff
  id        -45.7650n  -414.4518p   9.767e-21  -414.4517p     0.     
  ibs       7.245e-21   6.580e-23   348.6251a   6.580e-23   348.6251a
  ibd         2.2844a     1.0157f   348.6251a     1.0157f   348.6251a
  vgs        -1.2000      0.        -11.3416n     0.          1.2000 
  vds      -169.4374u    -1.2000      7.5605n    -1.2000     15.1195n
  vbs         0.          0.          1.2000      0.          1.2000 
  vth      -312.2493m  -222.6094m  -421.2322m  -222.6094m  -421.2322m
  vdsat    -527.9821m   -41.7924m   -49.0969m   -41.7924m   -49.0969m
  vod      -887.7494m   222.6094m   421.2321m   222.6094m     1.6212 
  beta      346.4304u   536.6358u   499.1049u   536.6358u   499.1049u
  gam eff   263.7520m   263.7520m   263.7520m   263.7520m   263.7520m
  gm         27.2748n    16.9649n   4.286e-19    16.9649n     0.     
  gds       271.7631u     1.4614n     1.2918p     1.4614n     0.     
  gmb         5.3453n     1.6639n   4.087e-20     1.6639n     0.     
  cdtot     689.1603a   190.6279a   199.3233a   190.6279a   190.6274a
  cgtot     450.2662a   293.8357a   256.4134a   293.8357a   262.0978a
  cstot     504.2679a   240.2040a   202.4770a   240.2040a   190.6274a
  cbtot     229.8858a   219.2076a   186.5787a   219.2076a   203.8257a
  cgs       220.2676a   146.4587a   116.5003a   146.4587a   109.8813a
  cgd       216.4350a   107.8225a   115.0822a   107.8225a   109.8828a



 subckt    xmvb.xi11.  xmvb.xi11.  xmvb.xi11.  xmvb.xi11.  xmvb.xi11.
 element  20:mnm4     20:mnm2     20:mnm1     20:mnm3     20:mnm0    
 model     0:gpdk090_  0:gpdk090_  0:gpdk090_  0:gpdk090_  0:gpdk090_
 region        Cutoff      Linear      Linear      Linear      Cutoff
  id         45.7586n   418.0536p    -2.4002p   420.4533p  -487.9149a
  ibs      -8.120e-21  -7.418e-23  -2.026e-20  -7.461e-23  -2.026e-20
  ibd        -3.9740p  -1.995e-20  -2.014e-20  -2.007e-20  -2.003e-20
  vgs         1.3320u     1.2000      1.2000      1.2000    -18.9021n
  vds         1.1998      1.3169u    -7.5605n     1.3244u   -15.1195n
  vbs         0.          0.         -1.3320u     0.         -1.3320u
  vth        99.8342m   238.8494m   238.8497m   238.8494m   238.8497m
  vdsat      43.1876m   467.5921m   467.5916m   467.5921m    41.2442m
  vod       -99.8328m   961.1506m   961.1490m   961.1506m  -238.8497m
  beta      476.1429u   347.3556u   347.3558u   347.3556u   480.2743u
  gam eff   282.5346m   282.5346m   282.5346m   282.5346m   282.5346m
  gm          1.1049u   216.9618p     1.2457p   218.2072p    12.7584f
  gds       141.2267n   319.8331u   319.8339u   319.8331u    32.2705n
  gmb        32.1663n    40.1404p   230.4615f    40.3708p     1.1878f
  cdtot     140.5424a   373.4456a   302.3347a   373.4456a   161.9636a
  cgtot     132.1935a   213.5069a   213.5069a   213.5069a   118.5510a
  cstot     177.0880a   302.3346a   373.4459a   302.3346a   166.8602a
  cbtot     225.8678a   235.2439a   235.2439a   235.2439a   236.9822a
  cgs        70.9387a   113.7326a    92.8809a   113.7326a    49.5333a
  cgd        41.0921a    92.8808a   113.7325a    92.8808a    48.6942a



 subckt    xmvb.xi11.  xmvb.xi11.  xmvb.xi11.  xmvb.xi11.  xmvb.xi11.
 element  20:mpm4     20:mpm2     20:mpm1     20:mpm3     20:mpm0    
 model     0:gpdk090_  0:gpdk090_  0:gpdk090_  0:gpdk090_  0:gpdk090_
 region        Linear      Cutoff      Cutoff      Cutoff      Cutoff
  id        -45.7650n  -414.4518p   9.767e-21  -414.4517p     0.     
  ibs       7.245e-21   6.580e-23   348.6251a   6.580e-23   348.6251a
  ibd         2.2844a     1.0157f   348.6251a     1.0157f   348.6251a
  vgs        -1.2000      0.        -11.3416n     0.          1.2000 
  vds      -169.4374u    -1.2000      7.5605n    -1.2000     15.1195n
  vbs         0.          0.          1.2000      0.          1.2000 
  vth      -312.2493m  -222.6094m  -421.2322m  -222.6094m  -421.2322m
  vdsat    -527.9821m   -41.7924m   -49.0969m   -41.7924m   -49.0969m
  vod      -887.7494m   222.6094m   421.2321m   222.6094m     1.6212 
  beta      346.4304u   536.6358u   499.1049u   536.6358u   499.1049u
  gam eff   263.7520m   263.7520m   263.7520m   263.7520m   263.7520m
  gm         27.2748n    16.9649n   4.286e-19    16.9649n     0.     
  gds       271.7631u     1.4614n     1.2918p     1.4614n     0.     
  gmb         5.3453n     1.6639n   4.087e-20     1.6639n     0.     
  cdtot     689.1603a   190.6279a   199.3233a   190.6279a   190.6274a
  cgtot     450.2662a   293.8357a   256.4134a   293.8357a   262.0978a
  cstot     504.2679a   240.2040a   202.4770a   240.2040a   190.6274a
  cbtot     229.8858a   219.2076a   186.5787a   219.2076a   203.8257a
  cgs       220.2676a   146.4587a   116.5003a   146.4587a   109.8813a
  cgd       216.4350a   107.8225a   115.0822a   107.8225a   109.8828a



 subckt    xmvb.xi10.  xmvb.xi10.  xmvb.xi10.  xmvb.xi10.  xmvb.xi10.
 element  21:mpm0     21:mnm0     22:mpm0     22:mnm0     23:mnm4    
 model     0:gpdk090_  0:gpdk090_  0:gpdk090_  0:gpdk090_  0:gpdk090_
 region        Cutoff      Linear      Cutoff      Linear      Cutoff
  id       -414.4518p   416.8528p  -414.4518p   416.8528p    45.7586n
  ibs       6.580e-23  -7.397e-23   6.580e-23  -7.397e-23  -8.120e-21
  ibd         1.0157f  -1.990e-20     1.0157f  -1.990e-20    -3.9740p
  vgs         0.          1.2000      0.          1.2000      1.3412u
  vds        -1.2000      1.3131u    -1.2000      1.3131u     1.1998 
  vbs         0.          0.          0.          0.          0.     
  vth      -222.6094m   238.8494m  -222.6094m   238.8494m    99.8342m
  vdsat     -41.7924m   467.5921m   -41.7924m   467.5921m    43.1876m
  vod       222.6094m   961.1506m   222.6094m   961.1506m   -99.8328m
  beta      536.6358u   347.3556u   536.6358u   347.3556u   476.1429u
  gam eff   263.7520m   282.5346m   263.7520m   282.5346m   282.5346m
  gm         16.9649n   216.3386p    16.9649n   216.3386p     1.1049u
  gds         1.4614n   319.8331u     1.4614n   319.8331u   141.2267n
  gmb         1.6639n    40.0251p     1.6639n    40.0251p    32.1663n
  cdtot     190.6279a   373.4456a   190.6279a   373.4456a   140.5424a
  cgtot     293.8357a   213.5069a   293.8357a   213.5069a   132.1935a
  cstot     240.2040a   302.3346a   240.2040a   302.3346a   177.0880a
  cbtot     219.2076a   235.2439a   219.2076a   235.2439a   225.8678a
  cgs       146.4587a   113.7326a   146.4587a   113.7326a    70.9387a
  cgd       107.8225a    92.8808a   107.8225a    92.8808a    41.0921a



 subckt    xmvb.xi10.  xmvb.xi10.  xmvb.xi10.  xmvb.xi10.  xmvb.xi10.
 element  23:mnm2     23:mnm1     23:mnm3     23:mnm0     23:mpm4    
 model     0:gpdk090_  0:gpdk090_  0:gpdk090_  0:gpdk090_  0:gpdk090_
 region        Linear      Linear      Linear      Cutoff      Linear
  id        420.9379p    -2.4002p   423.3376p  -487.9367a   -45.7650n
  ibs      -7.469e-23  -2.040e-20  -7.512e-23  -2.040e-20   7.245e-21
  ibd      -2.009e-20  -2.028e-20  -2.021e-20  -2.017e-20     2.2844a
  vgs         1.1998      1.2000      1.1998    -28.1039n    -1.2000 
  vds         1.3261u    -7.5605n     1.3336u   -15.1202n  -169.4375u
  vbs         0.         -1.3412u     0.         -1.3412u     0.     
  vth       238.8494m   238.8497m   238.8494m   238.8497m  -312.2493m
  vdsat     467.5300m   467.5916m   467.5300m    41.2442m  -527.9821m
  vod       960.9811m   961.1490m   960.9811m  -238.8497m  -887.7494m
  beta      347.3862u   347.3558u   347.3862u   480.2743u   346.4304u
  gam eff   282.5346m   282.5346m   282.5346m   282.5346m   263.7520m
  gm        218.5517p     1.2457p   219.7976p    12.7590f    27.2748n
  gds       319.8049u   319.8339u   319.8049u    32.2705n   271.7631u
  gmb        40.4243p   230.4615f    40.6547p     1.1878f     5.3453n
  cdtot     373.4436a   302.3347a   373.4436a   161.9636a   689.1603a
  cgtot     213.5075a   213.5069a   213.5075a   118.5510a   450.2662a
  cstot     302.3343a   373.4459a   302.3343a   166.8602a   504.2679a
  cbtot     235.2440a   235.2439a   235.2440a   236.9822a   229.8858a
  cgs       113.7336a    92.8809a   113.7336a    49.5333a   220.2676a
  cgd        92.8803a   113.7325a    92.8803a    48.6942a   216.4350a



 subckt    xmvb.xi10.  xmvb.xi10.  xmvb.xi10.  xmvb.xi10.  xmvb.xi10.
 element  23:mpm2     23:mpm1     23:mpm3     23:mpm0     24:mnm4    
 model     0:gpdk090_  0:gpdk090_  0:gpdk090_  0:gpdk090_  0:gpdk090_
 region        Cutoff      Cutoff      Cutoff      Cutoff      Cutoff
  id       -417.3360p   9.767e-21  -417.3360p     0.         45.7586n
  ibs       6.626e-23   348.6251a   6.626e-23   348.6251a  -8.120e-21
  ibd         1.0204f   348.6251a     1.0204f   348.6251a    -3.9740p
  vgs      -169.4374u   -20.5434n  -169.4374u     1.2000      1.3320u
  vds        -1.2000      7.5605n    -1.2000     15.1202n     1.1998 
  vbs         0.          1.2000      0.          1.2000      0.     
  vth      -222.6094m  -421.2322m  -222.6094m  -421.2322m    99.8342m
  vdsat     -41.7925m   -49.0969m   -41.7925m   -49.0969m    43.1876m
  vod       222.4399m   421.2321m   222.4399m     1.6212    -99.8328m
  beta      536.6358u   499.1049u   536.6358u   499.1049u   476.1429u
  gam eff   263.7520m   263.7520m   263.7520m   263.7520m   282.5346m
  gm         17.0807n   4.286e-19    17.0807n     0.          1.1049u
  gds         1.4714n     1.2918p     1.4714n     0.        141.2267n
  gmb         1.6751n   4.087e-20     1.6751n     0.         32.1663n
  cdtot     190.6285a   199.3233a   190.6285a   190.6274a   140.5424a
  cgtot     293.8821a   256.4134a   293.8821a   262.0978a   132.1935a
  cstot     240.2591a   202.4770a   240.2591a   190.6274a   177.0880a
  cbtot     219.2019a   186.5787a   219.2019a   203.8257a   225.8678a
  cgs       146.5191a   116.5003a   146.5191a   109.8813a    70.9387a
  cgd       107.8191a   115.0822a   107.8191a   109.8828a    41.0921a



 subckt    xmvb.xi10.  xmvb.xi10.  xmvb.xi10.  xmvb.xi10.  xmvb.xi10.
 element  24:mnm2     24:mnm1     24:mnm3     24:mnm0     24:mpm4    
 model     0:gpdk090_  0:gpdk090_  0:gpdk090_  0:gpdk090_  0:gpdk090_
 region        Linear      Linear      Linear      Cutoff      Linear
  id        418.0536p    -2.4002p   420.4533p  -487.9149a   -45.7650n
  ibs      -7.418e-23  -2.026e-20  -7.461e-23  -2.026e-20   7.245e-21
  ibd      -1.995e-20  -2.014e-20  -2.007e-20  -2.003e-20     2.2844a
  vgs         1.2000      1.2000      1.2000    -18.9021n    -1.2000 
  vds         1.3169u    -7.5605n     1.3244u   -15.1195n  -169.4374u
  vbs         0.         -1.3320u     0.         -1.3320u     0.     
  vth       238.8494m   238.8497m   238.8494m   238.8497m  -312.2493m
  vdsat     467.5921m   467.5916m   467.5921m    41.2442m  -527.9821m
  vod       961.1506m   961.1490m   961.1506m  -238.8497m  -887.7494m
  beta      347.3556u   347.3558u   347.3556u   480.2743u   346.4304u
  gam eff   282.5346m   282.5346m   282.5346m   282.5346m   263.7520m
  gm        216.9618p     1.2457p   218.2072p    12.7584f    27.2748n
  gds       319.8331u   319.8339u   319.8331u    32.2705n   271.7631u
  gmb        40.1404p   230.4615f    40.3708p     1.1878f     5.3453n
  cdtot     373.4456a   302.3347a   373.4456a   161.9636a   689.1603a
  cgtot     213.5069a   213.5069a   213.5069a   118.5510a   450.2662a
  cstot     302.3346a   373.4459a   302.3346a   166.8602a   504.2679a
  cbtot     235.2439a   235.2439a   235.2439a   236.9822a   229.8858a
  cgs       113.7326a    92.8809a   113.7326a    49.5333a   220.2676a
  cgd        92.8808a   113.7325a    92.8808a    48.6942a   216.4350a



 subckt    xmvb.xi10.  xmvb.xi10.  xmvb.xi10.  xmvb.xi10.  xmvb.xi10.
 element  24:mpm2     24:mpm1     24:mpm3     24:mpm0     25:mnm4    
 model     0:gpdk090_  0:gpdk090_  0:gpdk090_  0:gpdk090_  0:gpdk090_
 region        Cutoff      Cutoff      Cutoff      Cutoff      Cutoff
  id       -414.4518p   9.767e-21  -414.4517p     0.         45.7586n
  ibs       6.580e-23   348.6251a   6.580e-23   348.6251a  -8.120e-21
  ibd         1.0157f   348.6251a     1.0157f   348.6251a    -3.9740p
  vgs         0.        -11.3416n     0.          1.2000      1.3320u
  vds        -1.2000      7.5605n    -1.2000     15.1195n     1.1998 
  vbs         0.          1.2000      0.          1.2000      0.     
  vth      -222.6094m  -421.2322m  -222.6094m  -421.2322m    99.8342m
  vdsat     -41.7924m   -49.0969m   -41.7924m   -49.0969m    43.1876m
  vod       222.6094m   421.2321m   222.6094m     1.6212    -99.8328m
  beta      536.6358u   499.1049u   536.6358u   499.1049u   476.1429u
  gam eff   263.7520m   263.7520m   263.7520m   263.7520m   282.5346m
  gm         16.9649n   4.286e-19    16.9649n     0.          1.1049u
  gds         1.4614n     1.2918p     1.4614n     0.        141.2267n
  gmb         1.6639n   4.087e-20     1.6639n     0.         32.1663n
  cdtot     190.6279a   199.3233a   190.6279a   190.6274a   140.5424a
  cgtot     293.8357a   256.4134a   293.8357a   262.0978a   132.1935a
  cstot     240.2040a   202.4770a   240.2040a   190.6274a   177.0880a
  cbtot     219.2076a   186.5787a   219.2076a   203.8257a   225.8678a
  cgs       146.4587a   116.5003a   146.4587a   109.8813a    70.9387a
  cgd       107.8225a   115.0822a   107.8225a   109.8828a    41.0921a



 subckt    xmvb.xi10.  xmvb.xi10.  xmvb.xi10.  xmvb.xi10.  xmvb.xi10.
 element  25:mnm2     25:mnm1     25:mnm3     25:mnm0     25:mpm4    
 model     0:gpdk090_  0:gpdk090_  0:gpdk090_  0:gpdk090_  0:gpdk090_
 region        Linear      Linear      Linear      Cutoff      Linear
  id        418.0536p    -2.4002p   420.4533p  -487.9149a   -45.7650n
  ibs      -7.418e-23  -2.026e-20  -7.461e-23  -2.026e-20   7.245e-21
  ibd      -1.995e-20  -2.014e-20  -2.007e-20  -2.003e-20     2.2844a
  vgs         1.2000      1.2000      1.2000    -18.9021n    -1.2000 
  vds         1.3169u    -7.5605n     1.3244u   -15.1195n  -169.4374u
  vbs         0.         -1.3320u     0.         -1.3320u     0.     
  vth       238.8494m   238.8497m   238.8494m   238.8497m  -312.2493m
  vdsat     467.5921m   467.5916m   467.5921m    41.2442m  -527.9821m
  vod       961.1506m   961.1490m   961.1506m  -238.8497m  -887.7494m
  beta      347.3556u   347.3558u   347.3556u   480.2743u   346.4304u
  gam eff   282.5346m   282.5346m   282.5346m   282.5346m   263.7520m
  gm        216.9618p     1.2457p   218.2072p    12.7584f    27.2748n
  gds       319.8331u   319.8339u   319.8331u    32.2705n   271.7631u
  gmb        40.1404p   230.4615f    40.3708p     1.1878f     5.3453n
  cdtot     373.4456a   302.3347a   373.4456a   161.9636a   689.1603a
  cgtot     213.5069a   213.5069a   213.5069a   118.5510a   450.2662a
  cstot     302.3346a   373.4459a   302.3346a   166.8602a   504.2679a
  cbtot     235.2439a   235.2439a   235.2439a   236.9822a   229.8858a
  cgs       113.7326a    92.8809a   113.7326a    49.5333a   220.2676a
  cgd        92.8808a   113.7325a    92.8808a    48.6942a   216.4350a



 subckt    xmvb.xi10.  xmvb.xi10.  xmvb.xi10.  xmvb.xi10.  xmvb.xi9.x
 element  25:mpm2     25:mpm1     25:mpm3     25:mpm0     26:mpm0    
 model     0:gpdk090_  0:gpdk090_  0:gpdk090_  0:gpdk090_  0:gpdk090_
 region        Cutoff      Cutoff      Cutoff      Cutoff      Cutoff
  id       -414.4518p   9.767e-21  -414.4517p     0.       -414.4518p
  ibs       6.580e-23   348.6251a   6.580e-23   348.6251a   6.580e-23
  ibd         1.0157f   348.6251a     1.0157f   348.6251a     1.0157f
  vgs         0.        -11.3416n     0.          1.2000      0.     
  vds        -1.2000      7.5605n    -1.2000     15.1195n    -1.2000 
  vbs         0.          1.2000      0.          1.2000      0.     
  vth      -222.6094m  -421.2322m  -222.6094m  -421.2322m  -222.6094m
  vdsat     -41.7924m   -49.0969m   -41.7924m   -49.0969m   -41.7924m
  vod       222.6094m   421.2321m   222.6094m     1.6212    222.6094m
  beta      536.6358u   499.1049u   536.6358u   499.1049u   536.6358u
  gam eff   263.7520m   263.7520m   263.7520m   263.7520m   263.7520m
  gm         16.9649n   4.286e-19    16.9649n     0.         16.9649n
  gds         1.4614n     1.2918p     1.4614n     0.          1.4614n
  gmb         1.6639n   4.087e-20     1.6639n     0.          1.6639n
  cdtot     190.6279a   199.3233a   190.6279a   190.6274a   190.6279a
  cgtot     293.8357a   256.4134a   293.8357a   262.0978a   293.8357a
  cstot     240.2040a   202.4770a   240.2040a   190.6274a   240.2040a
  cbtot     219.2076a   186.5787a   219.2076a   203.8257a   219.2076a
  cgs       146.4587a   116.5003a   146.4587a   109.8813a   146.4587a
  cgd       107.8225a   115.0822a   107.8225a   109.8828a   107.8225a



 subckt    xmvb.xi9.x  xmvb.xi9.x  xmvb.xi9.x  xmvb.xi9.x  xmvb.xi9.x
 element  26:mnm0     27:mpm0     27:mnm0     28:mnm4     28:mnm2    
 model     0:gpdk090_  0:gpdk090_  0:gpdk090_  0:gpdk090_  0:gpdk090_
 region        Linear      Cutoff      Linear      Cutoff      Linear
  id        416.8528p  -414.4518p   416.8528p    45.7586n   420.9379p
  ibs      -7.397e-23   6.580e-23  -7.397e-23  -8.120e-21  -7.469e-23
  ibd      -1.990e-20     1.0157f  -1.990e-20    -3.9740p  -2.009e-20
  vgs         1.2000      0.          1.2000      1.3412u     1.1998 
  vds         1.3131u    -1.2000      1.3131u     1.1998      1.3261u
  vbs         0.          0.          0.          0.          0.     
  vth       238.8494m  -222.6094m   238.8494m    99.8342m   238.8494m
  vdsat     467.5921m   -41.7924m   467.5921m    43.1876m   467.5300m
  vod       961.1506m   222.6094m   961.1506m   -99.8328m   960.9811m
  beta      347.3556u   536.6358u   347.3556u   476.1429u   347.3862u
  gam eff   282.5346m   263.7520m   282.5346m   282.5346m   282.5346m
  gm        216.3386p    16.9649n   216.3386p     1.1049u   218.5517p
  gds       319.8331u     1.4614n   319.8331u   141.2267n   319.8049u
  gmb        40.0251p     1.6639n    40.0251p    32.1663n    40.4243p
  cdtot     373.4456a   190.6279a   373.4456a   140.5424a   373.4436a
  cgtot     213.5069a   293.8357a   213.5069a   132.1935a   213.5075a
  cstot     302.3346a   240.2040a   302.3346a   177.0880a   302.3343a
  cbtot     235.2439a   219.2076a   235.2439a   225.8678a   235.2440a
  cgs       113.7326a   146.4587a   113.7326a    70.9387a   113.7336a
  cgd        92.8808a   107.8225a    92.8808a    41.0921a    92.8803a



 subckt    xmvb.xi9.x  xmvb.xi9.x  xmvb.xi9.x  xmvb.xi9.x  xmvb.xi9.x
 element  28:mnm1     28:mnm3     28:mnm0     28:mpm4     28:mpm2    
 model     0:gpdk090_  0:gpdk090_  0:gpdk090_  0:gpdk090_  0:gpdk090_
 region        Linear      Linear      Cutoff      Linear      Cutoff
  id         -2.4002p   423.3376p  -487.9367a   -45.7650n  -417.3360p
  ibs      -2.040e-20  -7.512e-23  -2.040e-20   7.245e-21   6.626e-23
  ibd      -2.028e-20  -2.021e-20  -2.017e-20     2.2844a     1.0204f
  vgs         1.2000      1.1998    -28.1039n    -1.2000   -169.4374u
  vds        -7.5605n     1.3336u   -15.1202n  -169.4375u    -1.2000 
  vbs        -1.3412u     0.         -1.3412u     0.          0.     
  vth       238.8497m   238.8494m   238.8497m  -312.2493m  -222.6094m
  vdsat     467.5916m   467.5300m    41.2442m  -527.9821m   -41.7925m
  vod       961.1490m   960.9811m  -238.8497m  -887.7494m   222.4399m
  beta      347.3558u   347.3862u   480.2743u   346.4304u   536.6358u
  gam eff   282.5346m   282.5346m   282.5346m   263.7520m   263.7520m
  gm          1.2457p   219.7976p    12.7590f    27.2748n    17.0807n
  gds       319.8339u   319.8049u    32.2705n   271.7631u     1.4714n
  gmb       230.4615f    40.6547p     1.1878f     5.3453n     1.6751n
  cdtot     302.3347a   373.4436a   161.9636a   689.1603a   190.6285a
  cgtot     213.5069a   213.5075a   118.5510a   450.2662a   293.8821a
  cstot     373.4459a   302.3343a   166.8602a   504.2679a   240.2591a
  cbtot     235.2439a   235.2440a   236.9822a   229.8858a   219.2019a
  cgs        92.8809a   113.7336a    49.5333a   220.2676a   146.5191a
  cgd       113.7325a    92.8803a    48.6942a   216.4350a   107.8191a



 subckt    xmvb.xi9.x  xmvb.xi9.x  xmvb.xi9.x  xmvb.xi9.x  xmvb.xi9.x
 element  28:mpm1     28:mpm3     28:mpm0     29:mnm4     29:mnm2    
 model     0:gpdk090_  0:gpdk090_  0:gpdk090_  0:gpdk090_  0:gpdk090_
 region        Cutoff      Cutoff      Cutoff      Cutoff      Linear
  id        9.767e-21  -417.3360p     0.         45.7586n   418.0536p
  ibs       348.6251a   6.626e-23   348.6251a  -8.120e-21  -7.418e-23
  ibd       348.6251a     1.0204f   348.6251a    -3.9740p  -1.995e-20
  vgs       -20.5434n  -169.4374u     1.2000      1.3320u     1.2000 
  vds         7.5605n    -1.2000     15.1202n     1.1998      1.3169u
  vbs         1.2000      0.          1.2000      0.          0.     
  vth      -421.2322m  -222.6094m  -421.2322m    99.8342m   238.8494m
  vdsat     -49.0969m   -41.7925m   -49.0969m    43.1876m   467.5921m
  vod       421.2321m   222.4399m     1.6212    -99.8328m   961.1506m
  beta      499.1049u   536.6358u   499.1049u   476.1429u   347.3556u
  gam eff   263.7520m   263.7520m   263.7520m   282.5346m   282.5346m
  gm        4.286e-19    17.0807n     0.          1.1049u   216.9618p
  gds         1.2918p     1.4714n     0.        141.2267n   319.8331u
  gmb       4.087e-20     1.6751n     0.         32.1663n    40.1404p
  cdtot     199.3233a   190.6285a   190.6274a   140.5424a   373.4456a
  cgtot     256.4134a   293.8821a   262.0978a   132.1935a   213.5069a
  cstot     202.4770a   240.2591a   190.6274a   177.0880a   302.3346a
  cbtot     186.5787a   219.2019a   203.8257a   225.8678a   235.2439a
  cgs       116.5003a   146.5191a   109.8813a    70.9387a   113.7326a
  cgd       115.0822a   107.8191a   109.8828a    41.0921a    92.8808a



 subckt    xmvb.xi9.x  xmvb.xi9.x  xmvb.xi9.x  xmvb.xi9.x  xmvb.xi9.x
 element  29:mnm1     29:mnm3     29:mnm0     29:mpm4     29:mpm2    
 model     0:gpdk090_  0:gpdk090_  0:gpdk090_  0:gpdk090_  0:gpdk090_
 region        Linear      Linear      Cutoff      Linear      Cutoff
  id         -2.4002p   420.4533p  -487.9149a   -45.7650n  -414.4518p
  ibs      -2.026e-20  -7.461e-23  -2.026e-20   7.245e-21   6.580e-23
  ibd      -2.014e-20  -2.007e-20  -2.003e-20     2.2844a     1.0157f
  vgs         1.2000      1.2000    -18.9021n    -1.2000      0.     
  vds        -7.5605n     1.3244u   -15.1195n  -169.4374u    -1.2000 
  vbs        -1.3320u     0.         -1.3320u     0.          0.     
  vth       238.8497m   238.8494m   238.8497m  -312.2493m  -222.6094m
  vdsat     467.5916m   467.5921m    41.2442m  -527.9821m   -41.7924m
  vod       961.1490m   961.1506m  -238.8497m  -887.7494m   222.6094m
  beta      347.3558u   347.3556u   480.2743u   346.4304u   536.6358u
  gam eff   282.5346m   282.5346m   282.5346m   263.7520m   263.7520m
  gm          1.2457p   218.2072p    12.7584f    27.2748n    16.9649n
  gds       319.8339u   319.8331u    32.2705n   271.7631u     1.4614n
  gmb       230.4615f    40.3708p     1.1878f     5.3453n     1.6639n
  cdtot     302.3347a   373.4456a   161.9636a   689.1603a   190.6279a
  cgtot     213.5069a   213.5069a   118.5510a   450.2662a   293.8357a
  cstot     373.4459a   302.3346a   166.8602a   504.2679a   240.2040a
  cbtot     235.2439a   235.2439a   236.9822a   229.8858a   219.2076a
[...]
 model     0:gpdk090_  0:gpdk090_  0:gpdk090_  0:gpdk090_  0:gpdk090_
 region        Linear      Cutoff      Cutoff      Cutoff      Cutoff
  id         51.2403n    28.1062n    51.2391n    28.1098n  -414.4518p
  ibs      -4.076e-21  -2.236e-21    -1.0906a  -350.3596a   6.580e-23
  ibd        -1.0825a  -714.0659f    -4.4679p  -350.3596a     1.0157f
  vgs         1.1998      1.3409u   -78.4799u   188.4208m     0.     
  vds        79.8022u     1.0114      1.1996    188.3014m    -1.2000 
  vbs         0.          0.        -79.8022u    -1.0114      0.     
  vth       264.8872m   147.7118m   125.9073m   324.1941m  -222.6094m
  vdsat     463.5281m    41.8068m    42.2552m    45.6416m   -41.7924m
  vod       934.9433m  -147.7105m  -125.9858m  -135.7733m   222.6094m
  beta      723.0398u     1.0144m     1.0110m     1.0329m   536.6358u
  gam eff   282.5346m   282.5346m   282.5346m   282.5346m   263.7520m
  gm         27.8514n   705.2366n     1.2648u   706.8180n    16.9649n
  gds       646.8678u    91.0890n   161.9878n   140.8820n     1.4614n
  gmb         5.6281n    31.0503n    43.8638n    49.4798n     1.6639n
  cdtot     669.4633a   187.3501a   185.3727a   193.2279a   190.6279a
  cgtot     460.2602a   274.5579a   281.2659a   270.3530a   293.8357a
  cstot     513.7966a   230.6093a   238.3128a   225.9702a   240.2040a
  cbtot     232.2800a   225.7833a   224.7148a   198.3960a   219.2076a
  cgs       246.9324a   135.8986a   144.3309a   143.8498a   146.4587a
  cgd       201.7913a    97.7379a    96.0025a   102.5416a   107.8225a



 subckt    xmvb.xi6.x  xmvb.xi6.x  xmvb.xi6.x  xmvb.xi6.x  xmvb.xi6.x
 element  67:mnm0     68:mpm0     68:mnm0     69:mpm0     69:mnm0    
 model     0:gpdk090_  0:gpdk090_  0:gpdk090_  0:gpdk090_  0:gpdk090_
 region        Linear      Cutoff      Linear      Linear      Cutoff
  id        416.8528p  -414.4518p   416.8528p   -45.7650n    45.7586n
  ibs      -7.397e-23   6.580e-23  -7.397e-23   7.245e-21  -8.120e-21
  ibd      -1.990e-20     1.0157f  -1.990e-20     2.2844a    -3.9740p
  vgs         1.2000      0.          1.2000     -1.2000      1.3409u
  vds         1.3131u    -1.2000      1.3131u  -169.4375u     1.1998 
  vbs         0.          0.          0.          0.          0.     
  vth       238.8494m  -222.6094m   238.8494m  -312.2493m    99.8342m
  vdsat     467.5921m   -41.7924m   467.5921m  -527.9821m    43.1876m
  vod       961.1506m   222.6094m   961.1506m  -887.7494m   -99.8328m
  beta      347.3556u   536.6358u   347.3556u   346.4304u   476.1429u
  gam eff   282.5346m   263.7520m   282.5346m   263.7520m   282.5346m
  gm        216.3386p    16.9649n   216.3386p    27.2748n     1.1049u
  gds       319.8331u     1.4614n   319.8331u   271.7631u   141.2267n
  gmb        40.0251p     1.6639n    40.0251p     5.3453n    32.1663n
  cdtot     373.4456a   190.6279a   373.4456a   689.1603a   140.5424a
  cgtot     213.5069a   293.8357a   213.5069a   450.2662a   132.1935a
  cstot     302.3346a   240.2040a   302.3346a   504.2679a   177.0880a
  cbtot     235.2439a   219.2076a   235.2439a   229.8858a   225.8678a
  cgs       113.7326a   146.4587a   113.7326a   220.2676a    70.9387a
  cgd        92.8808a   107.8225a    92.8808a   216.4350a    41.0921a



 subckt    xmvb.xi6.x  xmvb.xi6.x  xmvb.xi6.x  xmvb.xi6.x  xmvb.xi6.x
 element  70:mpm0     70:mnm0     71:mpm0     71:mnm0     72:mnm4    
 model     0:gpdk090_  0:gpdk090_  0:gpdk090_  0:gpdk090_  0:gpdk090_
 region        Cutoff      Linear      Cutoff      Linear      Linear
  id       -417.3360p   419.7371p  -417.3360p   419.7371p   425.5872p
  ibs       6.626e-23  -7.448e-23   6.626e-23  -7.448e-23  -7.552e-23
  ibd         1.0204f  -2.004e-20     1.0204f  -2.004e-20  -2.032e-20
  vgs      -169.4375u     1.1998   -169.4375u     1.1998      1.1995 
  vds        -1.2000      1.3223u    -1.2000      1.3223u     1.3409u
  vbs         0.          0.          0.          0.          0.     
  vth      -222.6094m   238.8494m  -222.6094m   238.8494m   238.8494m
  vdsat     -41.7925m   467.5300m   -41.7925m   467.5300m   467.4053m
  vod       222.4399m   960.9811m   222.4399m   960.9811m   960.6410m
  beta      536.6358u   347.3862u   536.6358u   347.3862u   347.4478u
  gam eff   263.7520m   282.5346m   263.7520m   282.5346m   282.5346m
  gm         17.0807n   217.9282p    17.0807n   217.9282p   221.1544p
  gds         1.4714n   319.8049u     1.4714n   319.8049u   319.7484u
  gmb         1.6751n    40.3090p     1.6751n    40.3090p    40.8849p
  cdtot     190.6285a   373.4436a   190.6285a   373.4436a   373.4397a
  cgtot     293.8821a   213.5075a   293.8821a   213.5075a   213.5088a
  cstot     240.2591a   302.3343a   240.2591a   302.3343a   302.3335a
  cbtot     219.2019a   235.2440a   219.2019a   235.2440a   235.2441a
  cgs       146.5191a   113.7336a   146.5191a   113.7336a   113.7358a
  cgd       107.8191a    92.8803a   107.8191a    92.8803a    92.8793a



 subckt    xmvb.xi6.x  xmvb.xi6.x  xmvb.xi6.x  xmvb.xi6.x  xmvb.xi6.x
 element  72:mnm2     72:mnm1     72:mnm3     72:mnm0     72:mpm4    
 model     0:gpdk090_  0:gpdk090_  0:gpdk090_  0:gpdk090_  0:gpdk090_
 region        Linear      Cutoff      Cutoff      Cutoff      Cutoff
  id         46.3517n   361.2908f    45.7346n   -45.5244n  -423.1862p
  ibs      -8.225e-21  -390.7677a  -8.116e-21    -3.9431p   6.718e-23
  ibd        -2.2069a  -390.7677a    -3.9681p    -2.2231a     1.0298f
  vgs         1.1998    509.6054u     1.3409u    -1.1995   -509.6054u
  vds       146.0469u   170.1151u     1.1997     -1.1993     -1.2000 
  vbs         0.         -1.1995      0.         -1.1995      0.     
  vth       238.8328m   337.2819m    99.8539m    99.8957m  -222.6094m
  vdsat     467.5323m    45.2536m    43.1866m    43.1788m   -41.7928m
  vod       960.9977m  -336.7723m   -99.8525m    -1.2994    222.0998m
  beta      347.3895u   491.4795u   476.1453u   476.1506u   536.6358u
  gam eff   282.5346m   282.5346m   282.5346m   282.5346m   263.7520m
  gm         24.0725n     9.8526p     1.1044u     1.0995u    17.3156n
  gds       319.6801u     2.1210n   141.1563n   140.5403n     1.4918n
  gmb         4.4507n   843.8264f    32.1593n    32.0234n     1.6978n
  cdtot     373.4050a   146.4456a   140.5436a   177.0350a   190.6296a
  cgtot     213.5071a   108.0051a   132.1892a   132.1456a   293.9756a
  cstot     302.3238a   145.4688a   177.0834a   140.5449a   240.3700a
  cbtot     235.2383a   207.3302a   225.8687a   225.8666a   219.1904a
  cgs       113.7415a    47.3331a    70.9337a    41.0981a   146.6407a
  cgd        92.8710a    47.4669a    41.0929a    70.8840a   107.8123a



 subckt    xmvb.xi6.x  xmvb.xi6.x  xmvb.xi6.x  xmvb.xi6.x  xmvb.xi6.x
 element  72:mpm2     72:mpm1     72:mpm3     72:mpm0     73:mnm4    
 model     0:gpdk090_  0:gpdk090_  0:gpdk090_  0:gpdk090_  0:gpdk090_
 region        Cutoff      Linear      Linear      Cutoff      Linear
  id       -417.1231p   -45.9369n   -91.6795n   404.1304p   425.5872p
  ibs       6.622e-23     4.5836a   1.451e-20   996.3696a  -7.552e-23
  ibd         1.0194f     6.8398a     4.5621a     6.8470a  -2.032e-20
  vgs      -169.4375u    -1.1997     -1.2000      1.1999      1.1995 
  vds        -1.1999   -170.1151u  -339.4903u     1.1993      1.3409u
  vbs         0.        339.4903u     0.          1.1999      0.     
  vth      -222.6202m  -312.2818m  -312.2367m  -222.7071m   238.8494m
  vdsat     -41.7925m  -527.8268m  -527.9865m   -41.7961m   467.4053m
  vod       222.4507m  -887.3774m  -887.7619m     1.4226    960.6410m
  beta      536.6334u   346.4912u   346.4330u   536.6216u   347.4478u
  gam eff   263.7520m   263.7520m   263.7520m   263.7520m   282.5346m
  gm         17.0721n    27.4006n    54.6528n    16.5504n   221.1544p
  gds         1.4707n   271.6969u   271.6635u     1.4254n   319.7484u
  gmb         1.6743n     5.3670n    10.7074n     1.6235n    40.8849p
  cdtot     190.6300a   689.1093a   689.0486a   239.9918a   373.4397a
  cgtot     293.8792a   450.2726a   450.2650a   293.6518a   213.5088a
  cstot     240.2556a   504.2474a   504.2390a   190.6295a   302.3335a
  cbtot     219.2029a   229.8616a   229.8708a   219.1957a   235.2441a
  cgs       146.5152a   220.2817a   220.2923a   107.8369a   113.7358a
  cgd       107.8198a   216.4323a   216.4091a   146.2419a    92.8793a



 subckt    xmvb.xi6.x  xmvb.xi6.x  xmvb.xi6.x  xmvb.xi6.x  xmvb.xi6.x
 element  73:mnm2     73:mnm1     73:mnm3     73:mnm0     73:mpm4    
 model     0:gpdk090_  0:gpdk090_  0:gpdk090_  0:gpdk090_  0:gpdk090_
 region        Linear      Cutoff      Cutoff      Cutoff      Cutoff
  id         46.3537n   361.2907f    45.7346n   -45.5244n  -423.1862p
  ibs      -8.225e-21  -390.7677a  -8.116e-21    -3.9431p   6.718e-23
  ibd        -2.2071a  -390.7677a    -3.9681p    -2.2233a     1.0298f
  vgs         1.1997    509.6052u     1.3409u    -1.1995   -509.6052u
  vds       146.0623u   170.1150u     1.1997     -1.1993     -1.2000 
  vbs         0.         -1.1995      0.         -1.1995      0.     
  vth       238.8328m   337.2819m    99.8539m    99.8957m  -222.6094m
  vdsat     467.4885m    45.2536m    43.1866m    43.1788m   -41.7928m
  vod       960.8783m  -336.7723m   -99.8525m    -1.2994    222.0998m
  beta      347.4111u   491.4795u   476.1453u   476.1506u   536.6358u
  gam eff   282.5346m   282.5346m   282.5346m   282.5346m   263.7520m
  gm         24.0807n     9.8526p     1.1044u     1.0995u    17.3156n
  gds       319.6603u     2.1210n   141.1563n   140.5403n     1.4918n
  gmb         4.4514n   843.8260f    32.1593n    32.0234n     1.6978n
  cdtot     373.4036a   146.4456a   140.5436a   177.0349a   190.6296a
  cgtot     213.5075a   108.0051a   132.1892a   132.1456a   293.9756a
  cstot     302.3236a   145.4688a   177.0834a   140.5449a   240.3700a
  cbtot     235.2383a   207.3302a   225.8687a   225.8666a   219.1904a
  cgs       113.7423a    47.3331a    70.9337a    41.0981a   146.6407a
  cgd        92.8707a    47.4669a    41.0929a    70.8840a   107.8123a



 subckt    xmvb.xi6.x  xmvb.xi6.x  xmvb.xi6.x  xmvb.xi6.x  xmvb.xi6.x
 element  73:mpm2     73:mpm1     73:mpm3     73:mpm0     74:mnm4    
 model     0:gpdk090_  0:gpdk090_  0:gpdk090_  0:gpdk090_  0:gpdk090_
 region        Cutoff      Linear      Linear      Cutoff      Cutoff
  id       -419.1664p   -45.9369n   -91.6794n   404.1303p    45.7586n
  ibs       6.655e-23     4.5836a   1.451e-20   996.3695a  -8.120e-21
  ibd         1.0227f     6.8398a     4.5621a     6.8470a    -3.9740p
  vgs      -288.8377u    -1.1997     -1.2000      1.1999      1.3412u
  vds        -1.1999   -170.1150u  -339.4902u     1.1993      1.1998 
  vbs         0.        339.4902u     0.          1.1999      0.     
  vth      -222.6202m  -312.2818m  -312.2367m  -222.7071m    99.8342m
  vdsat     -41.7926m  -527.8268m  -527.9865m   -41.7961m    43.1876m
  vod       222.3313m  -887.3774m  -887.7619m     1.4226    -99.8328m
  beta      536.6333u   346.4912u   346.4330u   536.6216u   476.1429u
  gam eff   263.7520m   263.7520m   263.7520m   263.7520m   282.5346m
  gm         17.1542n    27.4006n    54.6528n    16.5504n     1.1049u
  gds         1.4778n   271.6969u   271.6635u     1.4254n   141.2267n
  gmb         1.6822n     5.3670n    10.7074n     1.6235n    32.1663n
  cdtot     190.6304a   689.1093a   689.0486a   239.9918a   140.5424a
  cgtot     293.9120a   450.2726a   450.2650a   293.6518a   132.1935a
  cstot     240.2945a   504.2474a   504.2390a   190.6295a   177.0880a
  cbtot     219.1989a   229.8616a   229.8708a   219.1957a   225.8678a
  cgs       146.5579a   220.2817a   220.2923a   107.8369a    70.9387a
  cgd       107.8175a   216.4323a   216.4091a   146.2419a    41.0921a



 subckt    xmvb.xi6.x  xmvb.xi6.x  xmvb.xi6.x  xmvb.xi6.x  xmvb.xi6.x
 element  74:mnm2     74:mnm1     74:mnm3     74:mnm0     74:mpm4    
 model     0:gpdk090_  0:gpdk090_  0:gpdk090_  0:gpdk090_  0:gpdk090_
 region        Linear      Linear      Linear      Cutoff      Linear
  id        420.9379p    -2.4002p   423.3376p  -487.9368a   -45.7650n
  ibs      -7.469e-23  -2.040e-20  -7.512e-23  -2.040e-20   7.245e-21
  ibd      -2.009e-20  -2.028e-20  -2.021e-20  -2.017e-20     2.2844a
  vgs         1.1998      1.2000      1.1998    -28.1039n    -1.2000 
  vds         1.3261u    -7.5605n     1.3336u   -15.1202n  -169.4375u
  vbs         0.         -1.3412u     0.         -1.3412u     0.     
  vth       238.8494m   238.8497m   238.8494m   238.8497m  -312.2493m
  vdsat     467.5300m   467.5916m   467.5300m    41.2442m  -527.9821m
  vod       960.9811m   961.1490m   960.9811m  -238.8497m  -887.7494m
  beta      347.3862u   347.3558u   347.3862u   480.2743u   346.4304u
  gam eff   282.5346m   282.5346m   282.5346m   282.5346m   263.7520m
  gm        218.5517p     1.2457p   219.7976p    12.7590f    27.2748n
  gds       319.8049u   319.8339u   319.8049u    32.2705n   271.7631u
  gmb        40.4243p   230.4615f    40.6547p     1.1878f     5.3453n
  cdtot     373.4436a   302.3347a   373.4436a   161.9636a   689.1603a
  cgtot     213.5075a   213.5069a   213.5075a   118.5510a   450.2662a
  cstot     302.3343a   373.4459a   302.3343a   166.8602a   504.2679a
  cbtot     235.2440a   235.2439a   235.2440a   236.9822a   229.8858a
  cgs       113.7336a    92.8809a   113.7336a    49.5333a   220.2676a
  cgd        92.8803a   113.7325a    92.8803a    48.6942a   216.4350a



 subckt    xmvb.xi6.x  xmvb.xi6.x  xmvb.xi6.x  xmvb.xi6.x  xmvb.xi6.x
 element  74:mpm2     74:mpm1     74:mpm3     74:mpm0     75:mnm4    
 model     0:gpdk090_  0:gpdk090_  0:gpdk090_  0:gpdk090_  0:gpdk090_
 region        Cutoff      Cutoff      Cutoff      Cutoff      Linear
  id       -417.3360p   9.767e-21  -417.3360p     0.        425.5876p
  ibs       6.626e-23   348.6251a   6.626e-23   348.6251a  -7.552e-23
  ibd         1.0204f   348.6251a     1.0204f   348.6251a  -2.032e-20
  vgs      -169.4374u   -20.5434n  -169.4375u     1.2000      1.1995 
  vds        -1.2000      7.5605n    -1.2000     15.1202n     1.3409u
  vbs         0.          1.2000      0.          1.2000      0.     
  vth      -222.6094m  -421.2322m  -222.6094m  -421.2322m   238.8494m
  vdsat     -41.7925m   -49.0969m   -41.7925m   -49.0969m   467.4053m
  vod       222.4399m   421.2321m   222.4399m     1.6212    960.6410m
  beta      536.6358u   499.1049u   536.6358u   499.1049u   347.4478u
  gam eff   263.7520m   263.7520m   263.7520m   263.7520m   282.5346m
  gm         17.0807n   4.286e-19    17.0807n     0.        221.1546p
  gds         1.4714n     1.2918p     1.4714n     0.        319.7484u
  gmb         1.6751n   4.087e-20     1.6751n     0.         40.8850p
  cdtot     190.6285a   199.3233a   190.6285a   190.6274a   373.4397a
  cgtot     293.8821a   256.4134a   293.8821a   262.0978a   213.5088a
  cstot     240.2591a   202.4770a   240.2591a   190.6274a   302.3335a
  cbtot     219.2019a   186.5787a   219.2019a   203.8257a   235.2441a
  cgs       146.5191a   116.5003a   146.5191a   109.8813a   113.7358a
  cgd       107.8191a   115.0822a   107.8191a   109.8828a    92.8793a



 subckt    xmvb.xi6.x  xmvb.xi6.x  xmvb.xi6.x  xmvb.xi6.x  xmvb.xi6.x
 element  75:mnm2     75:mnm1     75:mnm3     75:mnm0     75:mpm4    
 model     0:gpdk090_  0:gpdk090_  0:gpdk090_  0:gpdk090_  0:gpdk090_
 region        Linear      Cutoff      Cutoff      Cutoff      Cutoff
  id         46.3545n   359.6475f    45.7346n   -45.5244n  -423.1865p
  ibs      -8.225e-21  -390.7677a  -8.116e-21    -3.9431p   6.718e-23
  ibd        -2.2070a  -390.7677a    -3.9681p    -2.2232a     1.0298f
  vgs         1.1998    340.1887u     1.3409u    -1.1995   -509.6262u
  vds       146.0558u   170.1255u     1.1997     -1.1993     -1.2000 
  vbs         0.         -1.1995      0.         -1.1995      0.     
  vth       238.8328m   337.2819m    99.8539m    99.8957m  -222.6094m
  vdsat     467.5323m    45.2536m    43.1866m    43.1788m   -41.7928m
  vod       960.9977m  -336.9417m   -99.8525m    -1.2994    222.0997m
  beta      347.3895u   491.4795u   476.1453u   476.1506u   536.6358u
  gam eff   282.5346m   282.5346m   282.5346m   282.5346m   263.7520m
  gm         24.0739n     9.8080p     1.1044u     1.0995u    17.3156n
  gds       319.6801u     2.1113n   141.1563n   140.5403n     1.4918n
  gmb         4.4510n   840.1036f    32.1593n    32.0234n     1.6978n
  cdtot     373.4050a   146.4390a   140.5436a   177.0350a   190.6296a
  cgtot     213.5071a   108.0025a   132.1892a   132.1456a   293.9756a
  cstot     302.3238a   145.4646a   177.0834a   140.5449a   240.3700a
  cbtot     235.2383a   207.3307a   225.8687a   225.8666a   219.1904a
  cgs       113.7415a    47.3316a    70.9337a    41.0981a   146.6407a
  cgd        92.8710a    47.4651a    41.0929a    70.8840a   107.8123a



 subckt    xmvb.xi6.x  xmvb.xi6.x  xmvb.xi6.x  xmvb.xi6.x
 element  75:mpm2     75:mpm1     75:mpm3     75:mpm0    
 model     0:gpdk090_  0:gpdk090_  0:gpdk090_  0:gpdk090_
 region        Cutoff      Linear      Linear      Cutoff
  id       -417.1231p   -45.9397n   -91.6823n   406.9438p
  ibs       6.622e-23     4.5837a   1.451e-20     1.0009f
  ibd         1.0194f     6.8401a     4.5622a     6.8473a
  vgs      -169.4374u    -1.1997     -1.2000      1.1997 
  vds        -1.1999   -170.1255u  -339.5007u     1.1993 
  vbs         0.        339.5007u     0.          1.1999 
  vth      -222.6202m  -312.2818m  -312.2367m  -222.7071m
  vdsat     -41.7925m  -527.8268m  -527.9865m   -41.7962m
  vod       222.4507m  -887.3773m  -887.7619m     1.4224 
  beta      536.6334u   346.4912u   346.4330u   536.6216u
  gam eff   263.7520m   263.7520m   263.7520m   263.7520m
  gm         17.0721n    27.4023n    54.6545n    16.6635n
  gds         1.4707n   271.6969u   271.6635u     1.4352n
  gmb         1.6743n     5.3673n    10.7077n     1.6345n
  cdtot     190.6300a   689.1092a   689.0486a   240.0466a
  cgtot     293.8792a   450.2726a   450.2650a   293.6979a
  cstot     240.2556a   504.2474a   504.2390a   190.6300a
  cbtot     219.2029a   229.8616a   229.8708a   219.1900a
  cgs       146.5152a   220.2817a   220.2923a   107.8336a
  cgd       107.8198a   216.4323a   216.4091a   146.3020a



 ******  
 ** ee 141 term project fall 2012 phase ii - mux and vertical logic block **

  ******  transient analysis tnom=  25.000 temp=  25.000 *****
   tphl=  2.0535E-08  targ=  2.0736E-08   trig=  2.0100E-10
   tplh=  2.0522E-08  targ=  3.0725E-08   trig=  1.0203E-08

          ***** job concluded
1****** HSPICE -- A-2008.03-SP1 32-BIT (May 26 2008) linux ******               
 ******  
 ** ee 141 term project fall 2012 phase ii - mux and vertical logic block **

  ******  job statistics summary tnom=  25.000 temp=  25.000 *****

  ******  Circuit Statistics  ******
  # nodes       =     992  # elements   =     415
  # resistors   =       0  # capacitors =       9  # inductors   =       0
  # mutual_inds =       0  # vccs       =       0  # vcvs        =       0
  # cccs        =       0  # ccvs       =       0  # volt_srcs   =       2
  # curr_srcs   =       0  # diodes     =       0  # bjts        =       0
  # jfets       =       0  # mosfets    =     404  # U elements  =       0
  # T elements  =       0  # W elements =       0  # B elements  =       0
  # S elements  =       0  # P elements =       0  # va device   =       0


  ******  Runtime Statistics (seconds)  ******
  analysis           time    # points   tot. iter  conv.iter
  op point           0.10           1          39
  transient          1.12         401        1045         351 rev=        27
  readin             0.01
  errchk             0.01
  setup              0.01
  output             0.00


           total memory used         3423  kbytes
           total cpu time            1.24 seconds
           total elapsed time           1 seconds
           job started at     23:11:46 11/05/2012
           job ended   at     23:11:47 11/05/2012


 Init: hspice initialization file: /share/instsww/synopsys/A-2008.03-SP1/hspice/hspice.ini
 lic: Release hspice token(s) 
