detected Linux; starting the 2008 version (/share/b/bin/hspice-2008)...
Using: /usr/bin/time -p /share/instsww/synopsys/A-2008.03-SP1/hspice/linux/hspice check.sp
 ****** HSPICE -- A-2008.03-SP1 32-BIT (May 26 2008) linux ******               
  Copyright (C) 2008 Synopsys, Inc. All Rights Reserved.                        
  Unpublished-rights reserved under US copyright laws.
  This program is protected by law and is subject to the 
  terms and conditions of the license agreement found in:
    /share/instsww/synopsys/A-2008.03-SP1/hspice/license.warn
  Use of this program is your acceptance to be bound by this 
  license agreement. HSPICE is the trademark of Synopsys, Inc.
  Input File: check.sp                                                          
 lic:  
 lic: FLEXlm: v8.5b 
 lic: USER:   ee141-ak             HOSTNAME: t7400-9.EECS.Berkeley.EDU 
 lic: HOSTID: 001e4ff64829         PID:      8209 
 lic: Using FLEXlm license file: 
 lic: 27000@cory.eecs.berkeley.edu 
 lic: Checkout 1 hspice 
 lic: License/Maintenance for hspice will expire on 25-oct-2013/2012.06 
 lic: FLOATING license(s) on SERVER cory.eecs.berkeley.edu 
 lic:   
 Init: read install configuration file: /share/instsww/synopsys/A-2008.03-SP1/hspice/meta.cfg
 Init: hspice initialization file: /share/instsww/synopsys/A-2008.03-SP1/hspice/hspice.ini

 *****************************************************************************
 * copy this spice deck and the digital vector file 'func_check.vec'
 * into the same folder as your mux and vertical logic block deck. make sure
 * that your block is enclosed within a subckt module.
 *****************************************************************************

 .param vdd_val = 1.2
 .param capval = 15f
 .lib '/home/ff/ee141/models/gpdk090_mos.sp' tt_s1v
 .lib 'gpdk090_mos.sp' s1v_mos
 .model gpdk090_nmos1v nmos level=49 
 +                lmin =			 0.0                 lmax =                  1.0                 wmin =                  0.0 
 +                wmax =                  1.0                 tnom =                 25.0              version =                  3.2 
 +                 tox =           s1v_tox_ne                 toxm =           s1v_tox_ne                   xj =            s1v_xj_ne 
 +                 nch =           s1v_nch_ne                  lln =            1.0000000                  lwn =            1.0000000 
 +                 wln =            1.0000000                  wwn =           -1.0000000                 lint =          s1v_lint_ne 
 +                  ll =                 0.00                   lw =                 0.00                  lwl =                 0.00 
 +                wint =          s1v_wint_ne                   wl =                 0.00                   ww =                 0.00 
 +                 wwl =                 0.00               mobmod =                    1              binunit =                    2 
 +                  xl =                    0                   xw =                    0                  dwg =                 0.00 
 +                 dwb =                 0.00                  acm =                   12                 ldif =          s1v_ldif_ne 
 +                hdif =          s1v_hdif_ne                  rsh =           s1v_rsh_ne                   rd =            s1v_rd_ne 
 +                  rs =            s1v_rs_ne                  rsc =           s1v_rsc_ne                  rdc =           s1v_rdc_ne 
 +                vth0 =          s1v_vth0_ne                   k1 =            s1v_k1_ne                   k2 =            s1v_k2_ne 
 +                  k3 =           -2.3000000                 dvt0 =              3.86366                 dvt1 =                  1.2 
 +                dvt2 =        5.0299990e-02                dvt0w =                 0.00                dvt1w =                 0.00 
 +               dvt2w =                 0.00                  nlx =        1.2517999e-07                   w0 =       -7.1353000e-09 
 +                 k3b =            0.5576769                ngate =               4.0e20                 vsat =          s1v_vsat_ne 
 +                  ua =       -6.1879500e-10                   ub =        1.8806652e-18                   uc =        1.3823546e-10 
 +                rdsw =          s1v_rdsw_ne                 prwb =                 0.00                 prwg =                 0.00 
 +                  wr =            1.0000000                   u0 =            s1v_u0_ne                   a0 =            2.3750000 
 +                keta =       -3.1429991e-02                   a1 =                 0.00                   a2 =            0.9900000 
 +                 ags =            0.8900000                   b0 =                 0.00                   b1 =                 0.00 
 +                voff =       -9.6776000e-02              nfactor =            1.0200000                  cit =       -8.6656060e-04 
 +                cdsc =        4.4460000e-02                cdscb =        1.0565110e-02                cdscd =                 0.00 
 +                eta0 =        7.6580000e-02                 etab =       -3.4998000e-02                 dsub =            0.2200000 
 +                pclm =            1.5488822              pdiblc1 =                 0.00              pdiblc2 =        2.4648249e-02 
 +             pdiblcb =                 0.00                drout =                 0.00               pscbe1 =         9.2648200e08 
 +              pscbe2 =        1.0000000e-20                 pvag =                 0.00                delta =        7.5000000e-03 
 +              alpha0 =                 0.00               alpha1 =               0.0177                beta0 =               6.3203 
 +                 kt1 =                -0.13                  kt2 =               -0.042                   at =         9.0000000e04 
 +                 ute =           -1.7303560                  ua1 =        1.8035814e-09                  ub1 =       -2.1874742e-18 
 +                 uc1 =           s1v_uc1_ne                 kt1l =                 0.00                  prt =           s1v_prt_ne 
 +                  cj =            s1v_cj_ne                   mj =                0.222                   pb =            s1v_pb_ne 
 +                cjsw =          s1v_cjsw_ne                 mjsw =                 0.01                 pbsw =                  0.1 
 +               cjswg =         s1v_cjswg_ne                mjswg =               0.5028                pbswg =               0.6859 
 +                 tpb =             1.30e-03                tpbsw =               0.0000               tpbswg =             2.81e-03 
 +                 tcj =             7.61e-04                tcjsw =             1.04e-03               tcjswg =             1.63e-03 
 +                  js =            s1v_js_ne                  jsw =           s1v_jsw_ne                    n =                    1 
 +                 xti =                    3                 cgdo =          s1v_cgdo_ne                 cgso =          s1v_cgdo_ne 
 +                cgbo =          s1v_cgbo_ne               capmod =                    2               nqsmod =                    0 
 +                 elm =                    5                xpart =                    1                 cgsl =          s1v_cgsl_ne 
 +                cgdl =          s1v_cgsl_ne               ckappa =        s1v_ckappa_ne                   cf =            s1v_cf_ne 
 +                 clc =        1.0000000e-07                  cle =            0.6000000                  dlc =             1.89e-08 
 +                 dwc =             1.62e-08                  llc =             1.53e-16                  lwc =             -9.0e-16 
 +                 wlc =                    0                  wwc =              -0.0989                 lwlc =                    0 
 +                wwlc =                    0                 acde =                  0.5                 moin =                 10.5 
 +                noff =                 1.85               voffcv =               -0.048              lvoffcv =              2.0e-09 
 +             calcacm =                    1             sfvtflag =                    0                 tlev =                    1 
 +               tlevc =                    1                 ijth =                 0.01 
  **warning** (/home/ff/ee141/MODELS/gpdk090_mos.sp:810)  model gpdk090_nmos1v  device geometries will not be checked against the limits set bylmin, lmax, wmin and wmax. To enable this check, add a period(.)to the model name(i.e. enable model selector).
 .model gpdk090_pmos1v pmos level=49 
 +	         lmin =			 0.0                 lmax =                  1.0                 wmin =                  0.0 
 +                wmax =                  1.0                 tnom =                 25.0              version =                  3.2 
 +                 tox =           s1v_tox_pe                 toxm =           s1v_tox_pe                   xj =            s1v_xj_pe 
 +                 nch =         1.7200001e17                  lln =            1.0000000                  lwn =            1.0000000 
 +                 wln =            1.0000000                  wwn =           -1.0000000                 lint =          s1v_lint_pe 
 +                  ll =                 0.00                   lw =                 0.00                  lwl =                 0.00 
 +                wint =          s1v_wint_pe                   wl =                 0.00                   ww =                 0.00 
 +                 wwl =                 0.00               mobmod =                    1              binunit =                    2 
 +                  xl =                    0                   xw =                    0                  dwg =                 0.00 
 +                 dwb =                 0.00                  acm =                   12                 ldif =          s1v_ldif_pe 
 +                hdif =          s1v_hdif_pe                  rsh =           s1v_rsh_pe                   rd =            s1v_rd_pe 
 +                  rs =            s1v_rs_pe                  rsc =           s1v_rsc_pe                  rdc =           s1v_rdc_pe 
 +                vth0 =          s1v_vth0_pe                pvth0 =                    0                   k1 =            s1v_k1_pe 
 +                  k2 =            s1v_k2_pe                   k3 =           -0.5000000                 dvt0 =                  8.0 
 +                dvt1 =                 2.07                 dvt2 =            0.1000000                dvt0w =                 0.00 
 +               dvt1w =                 0.00                dvt2w =                 0.00                  nlx =        2.2400000e-07 
 +                  w0 =                 0.00                  k3b =        7.0000000e-02                ngate =         9.3200000e19 
 +                vsat =          s1v_vsat_pe                   ua =       -2.7643932e-10                   ub =        2.2546092e-18 
 +                  uc =        1.6265005e-10                 rdsw =          s1v_rdsw_pe                 prwb =                 0.00 
 +                prwg =                 0.00                   wr =            1.0000000                   u0 =            s1v_u0_pe 
 +                  a0 =            2.9669099                 keta =       -8.2015020e-02                   a1 =                 0.00 
 +                  a2 =            1.0000000                  ags =            1.2279299                   b0 =                 0.00 
 +                  b1 =                 0.00                 voff =           -0.1170768              nfactor =            1.0000000 
 +                 cit =       -2.5695576e-03                 cdsc =                 0.00                cdscb =                 0.00 
 +               cdscd =                 0.00                 eta0 =        5.0000000e-02                leta0 =                    0 
 +                etab =                    0                 dsub =            0.3000000                 pclm =            1.0000000 
 +             pdiblc1 =        6.0000000e-03              pdiblc2 =        5.0000000e-03              pdiblcb =           -0.5267781 
 +               drout =                 0.00               pscbe1 =         5.1300000e08               pscbe2 =        4.8900000e-07 
 +                pvag =                 0.00                delta =        9.9999990e-03               alpha0 =                 0.00 
 +              alpha1 =                0.001                beta0 =                  7.6                  kt1 =                -0.11 
 +                 kt2 =        4.4329650e-02                   at =         1.0000000e04                  ute =           -1.4468272 
 +                 ua1 =        1.2158887e-09                  ub1 =       -4.0489830e-18                  uc1 =       -5.6549980e-10 
 +                kt1l =                 0.00                  prt =                    0                   cj =            s1v_cj_pe 
 +                  mj =                0.331                   pb =            s1v_pb_pe                 cjsw =          s1v_cjsw_pe 
 +                mjsw =                 0.01                 pbsw =                 0.10                cjswg =         s1v_cjswg_pe 
 +               mjswg =               0.7833                pbswg =               0.8137                  tpb =              0.00173 
 +               tpbsw =                  0.0               tpbswg =               0.0044                  tcj =             0.000949 
 +               tcjsw =            0.0000758               tcjswg =              0.00388                   js =            s1v_js_pe 
 +                 jsw =           s1v_jsw_pe                    n =                    1                  xti =                    3 
 +                cgdo =          s1v_cgdo_pe                 cgso =          s1v_cgdo_pe                 cgbo =          s1v_cgbo_pe 
 +              capmod =                    2               nqsmod =                    0                  elm =                    5 
 +               xpart =                    1                 cgsl =          s1v_cgsl_pe                 cgdl =          s1v_cgsl_pe 
 +              ckappa =        s1v_ckappa_pe                   cf =            s1v_cf_pe                  clc =        1.0000000e-07 
 +                 cle =            0.6000000                  dlc =            2.252e-08                  dwc =           1.2404e-08 
 +                 llc =             -1.2e-16                  lwc =             -6.2e-16                  wlc =                    0 
 +                 wwc =                -0.15                 lwlc =                    0                 wwlc =                    0 
 +                acde =                  0.5                 moin =                 15.6                 noff =                 2.16 
 +              voffcv =              -0.0385              lvoffcv =            -3.80e-09                lnoff =             7.50e-08 
 +             calcacm =                    1             sfvtflag =                    0                 tlev =                    1 
 +               tlevc =                    1                 ijth =                 0.01 
  **warning** (/home/ff/ee141/MODELS/gpdk090_mos.sp:860)  model gpdk090_pmos1v  device geometries will not be checked against the limits set bylmin, lmax, wmin and wmax. To enable this check, add a period(.)to the model name(i.e. enable model selector).
 .endl s1v_mos
 .param
 +           s1v_rs_ne =        0.000000e+000          s1v_vsat_ne =        1.120000e+005        s1v_pldd_surf =        6.000000e+019 
 +          s1v_uc1_ne =        3.700000e-010            s1v_u0_ne =        2.000000e-002           s1v_nch_ne =        5.200000e+017 
 +          s1v_rsc_ne =        4.082483e-014          s1v_cgbo_ne =        1.482000e-011           s1v_prt_ne =        1.000000e+001 
 +          s1v_rdc_ne =        4.082483e-014          s1v_vth0_ne =        1.692662e-001            s1v_k2_ne =        0.000000e+000 
 +         s1v_cgdo_ne =        2.667600e-010        s1v_ckappa_ne =        4.605336e+000          s1v_wint_ne =        6.000000e-009 
 +           s1v_k1_ne =        2.825346e-001          s1v_cgsl_ne =        1.111500e-010        s1v_nldd_surf =        3.000000e+019 
 +           s1v_js_ne =        3.366667e-006          s1v_hdif_ne =        1.400000e-007          s1v_rdsw_ne =        3.900000e-006 
 +          s1v_jsw_ne =        3.366667e-010           s1v_tox_ne =        2.330000e-009            s1v_cj_ne =        7.983537e-004 
 +         s1v_cjsw_ne =        4.790122e-011          s1v_ldif_ne =        1.000000e-008            s1v_xj_ne =        2.500000e-008 
 +           s1v_rd_ne =        0.000000e+000            s1v_pb_ne =        9.918524e-001            s1v_cf_ne =        4.594612e-011 
 +         s1v_lint_ne =        1.500000e-008         s1v_cjswg_ne =        1.995884e-011           s1v_rsh_ne =        1.000000e+001 
 +           s1v_u0_pe =        1.200000e-002           s1v_nch_pe =        4.000000e+017           s1v_rsc_pe =        2.886751e-014 
 +         s1v_cgbo_pe =        1.392363e-011           s1v_rdc_pe =        2.886751e-014          s1v_vth0_pe =       -1.359511e-001 
 +           s1v_k2_pe =        0.000000e+000          s1v_cgdo_pe =        2.506253e-010        s1v_ckappa_pe =        1.043477e+001 
 +         s1v_wint_pe =        5.000000e-009            s1v_k1_pe =        2.637520e-001          s1v_cgsl_pe =        1.044272e-010 
 +           s1v_js_pe =        3.350000e-006          s1v_hdif_pe =        1.400000e-007          s1v_rdsw_pe =        7.800000e-006 
 +          s1v_jsw_pe =        3.350000e-010           s1v_tox_pe =        2.480000e-009            s1v_cj_pe =        7.912252e-004 
 +         s1v_cjsw_pe =        4.747351e-011          s1v_ldif_pe =        1.000000e-008            s1v_xj_pe =        2.500000e-008 
 +           s1v_rd_pe =        0.000000e+000            s1v_pb_pe =        1.009805e+000            s1v_cf_pe =        4.527118e-011 
 +         s1v_lint_pe =        1.500000e-008         s1v_cjswg_pe =        1.978063e-011           s1v_rsh_pe =        2.000000e+001 
 +           s1v_rs_pe =        0.000000e+000          s1v_vsat_pe =        1.000000e+005 
 .endl tt_s1v

 ** include your mux and vertical logic block here
 .include 'slice.sp'
 ** library name: sram
 ** cell name: inv_1x
 ** view name: schematic
 .subckt inv_1x in out
 mpm0 out in vdd! vdd! gpdk090_pmos1v l=100e-9 w=240e-9 ad=67.2e-15 as=67.2e-15 pd=1.04e-6 ps=1.04e-6 m=1
 mnm0 out in 0 0 gpdk090_nmos1v l=100e-9 w=120e-9 ad=69.6e-15 as=69.6e-15 pd=1.16e-6 ps=1.16e-6 m=1
 .ends inv_1x
 ** end of subcircuit definition.

 ** library name: sram
 ** cell name: mux2
 ** view name: schematic
 .subckt mux2 sel selb in0 in1 out
 mnm4 out net49 0 0 gpdk090_nmos1v l=100e-9 w=120e-9 ad=69.6e-15 as=69.6e-15 pd=1.16e-6 ps=1.16e-6 m=1
 mnm2 net32 in0 0 0 gpdk090_nmos1v l=100e-9 w=120e-9 ad=69.6e-15 as=69.6e-15 pd=1.16e-6 ps=1.16e-6 m=1
 mnm1 net36 sel net49 0 gpdk090_nmos1v l=100e-9 w=120e-9 ad=69.6e-15 as=69.6e-15 pd=1.16e-6 ps=1.16e-6 m=1
 mnm3 net36 in1 0 0 gpdk090_nmos1v l=100e-9 w=120e-9 ad=69.6e-15 as=69.6e-15 pd=1.16e-6 ps=1.16e-6 m=1
 mnm0 net32 selb net49 0 gpdk090_nmos1v l=100e-9 w=120e-9 ad=69.6e-15 as=69.6e-15 pd=1.16e-6 ps=1.16e-6 m=1
 mpm4 out net49 vdd! vdd! gpdk090_pmos1v l=100e-9 w=240e-9 ad=67.2e-15 as=67.2e-15 pd=1.04e-6 ps=1.04e-6 m=1
 mpm2 net32 in0 vdd! vdd! gpdk090_pmos1v l=100e-9 w=240e-9 ad=67.2e-15 as=67.2e-15 pd=1.04e-6 ps=1.04e-6 m=1
 mpm1 net49 selb net36 vdd! gpdk090_pmos1v l=100e-9 w=240e-9 ad=67.2e-15 as=67.2e-15 pd=1.04e-6 ps=1.04e-6 m=1
 mpm3 net36 in1 vdd! vdd! gpdk090_pmos1v l=100e-9 w=240e-9 ad=67.2e-15 as=67.2e-15 pd=1.04e-6 ps=1.04e-6 m=1
 mpm0 net49 sel net32 vdd! gpdk090_pmos1v l=100e-9 w=240e-9 ad=67.2e-15 as=67.2e-15 pd=1.04e-6 ps=1.04e-6 m=1
 .ends mux2
 ** end of subcircuit definition.

 ** library name: sram
 ** cell name: 5_6_lut_output_decoder
 ** view name: schematic
 .subckt sram_5_6_lut_output_decoder_schematic in4 in5 l0 l1 l2 l3 o5 o6
 xi3 in5 net13 inv_1x
 xi4 in4 net23 inv_1x
 xi2 in5 net13 o5 net17 o6 mux2
 xi1 in4 net23 l2 l3 net17 mux2
 xi0 in4 net23 l0 l1 o5 mux2
 .ends sram_5_6_lut_output_decoder_schematic
 ** end of subcircuit definition.

 ** library name: sram
 ** cell name: xor
 ** view name: schematic
 .subckt xor a abar b bbar out
 mpm3 net21 abar vdd! vdd! gpdk090_pmos1v l=100e-9 w=480e-9 ad=134.4e-15 as=134.4e-15 pd=1.52e-6 ps=1.52e-6 m=1
 mpm2 net21 bbar vdd! vdd! gpdk090_pmos1v l=100e-9 w=480e-9 ad=134.4e-15 as=134.4e-15 pd=1.52e-6 ps=1.52e-6 m=1
 mpm1 out b net21 vdd! gpdk090_pmos1v l=100e-9 w=480e-9 ad=134.4e-15 as=134.4e-15 pd=1.52e-6 ps=1.52e-6 m=1
 mpm0 out a net21 vdd! gpdk090_pmos1v l=100e-9 w=480e-9 ad=134.4e-15 as=134.4e-15 pd=1.52e-6 ps=1.52e-6 m=1
 mnm3 net22 bbar 0 0 gpdk090_nmos1v l=100e-9 w=240e-9 ad=67.2e-15 as=67.2e-15 pd=1.04e-6 ps=1.04e-6 m=1
 mnm2 net26 b 0 0 gpdk090_nmos1v l=100e-9 w=240e-9 ad=67.2e-15 as=67.2e-15 pd=1.04e-6 ps=1.04e-6 m=1
 mnm1 out abar net22 0 gpdk090_nmos1v l=100e-9 w=240e-9 ad=67.2e-15 as=67.2e-15 pd=1.04e-6 ps=1.04e-6 m=1
 mnm0 out a net26 0 gpdk090_nmos1v l=100e-9 w=240e-9 ad=67.2e-15 as=67.2e-15 pd=1.04e-6 ps=1.04e-6 m=1
 .ends xor
 ** end of subcircuit definition.

 ** library name: sram
 ** cell name: mux_vertical_logic_sub
 ** view name: schematic
 .subckt mux_vertical_logic_sub cin cout o5 o6 inputx out_0 sout0 sout1
 xi5 o6 net52 cin net48 net42 xor
 xi12 sout1 net57 inv_1x
 xi10 sout0 net46 inv_1x
 xi7 cin net48 inv_1x
 xi1 o6 net72 inv_1x
 xi6 o6 net52 inv_1x
 xi11 sout1 net57 net66 net61 out_0 mux2
 xi9 sout0 net46 net42 cout net61 mux2
 xi8 sout0 net46 o5 inputx net66 mux2
 xi0 o6 net72 o5 cin cout mux2
 .ends mux_vertical_logic_sub
 ** end of subcircuit definition.

 ** library name: sram
 ** cell name: mux_vertical_logic
 ** view name: schematic
 .subckt mux_vertical_logic asout0 asout1 ax bsout0 bsout1 bx cin cout csout0 csout1 cx dsout0 dsout1 ina4 ina5 inb4 inb5 inc4 inc5 ind4 ind5 l0 l1 l10 l11 l12 l13 l14 l15 l2 l3 l4 l5 l6 l7 l8 l9 out0 out1 out2 out3 out4 out5 out6 out7
 xi17 cx net166 inv_1x
 xi16 bx net171 inv_1x
 xi15 ax net161 inv_1x
 xi13 ax net161 out1 out3 net233 mux2
 xi12 bx net171 out5 out7 net206 mux2
 xi14 cx net166 net233 net206 net224 mux2
 xi11 ind4 ind5 l12 l13 l14 l15 net179 out7 sram_5_6_lut_output_decoder_schematic
 xi10 inc4 inc5 l8 l9 l10 l11 net187 out5 sram_5_6_lut_output_decoder_schematic
 xi9 inb4 inb5 l4 l5 l6 l7 net195 out3 sram_5_6_lut_output_decoder_schematic
 xi8 ina4 ina5 l0 l1 l2 l3 net203 out1 sram_5_6_lut_output_decoder_schematic
 xi4 cin net227 net179 out7 net206 out6 dsout0 dsout1 mux_vertical_logic_sub
 xi7 net218 cout net203 out1 net0241 out0 asout0 asout1 mux_vertical_logic_sub
 xi5 net227 net236 net187 out5 net224 out4 csout0 csout1 mux_vertical_logic_sub
 xi6 net236 net218 net195 out3 net233 out2 bsout0 bsout1 mux_vertical_logic_sub
 .ends mux_vertical_logic
 ** end of subcircuit definition.

 ** library name: sram
 ** cell name: nand2
 ** view name: schematic
 .subckt nand2 in1 in2 out
 mnm1 net4 in2 0 0 gpdk090_nmos1v l=100e-9 w=500e-9 ad=140e-15 as=140e-15 pd=1.56e-6 ps=1.56e-6 m=1
 mnm0 out in1 net4 0 gpdk090_nmos1v l=100e-9 w=500e-9 ad=140e-15 as=140e-15 pd=1.56e-6 ps=1.56e-6 m=1
 mpm1 out in2 vdd! vdd! gpdk090_pmos1v l=100e-9 w=590e-9 ad=165.2e-15 as=165.2e-15 pd=1.74e-6 ps=1.74e-6 m=1
 mpm0 out in1 vdd! vdd! gpdk090_pmos1v l=100e-9 w=590e-9 ad=165.2e-15 as=165.2e-15 pd=1.74e-6 ps=1.74e-6 m=1
 .ends nand2
 ** end of subcircuit definition.

 ** library name: sram
 ** cell name: nor
 ** view name: schematic
 .subckt nor in1 in2 out
 mpm1 out in1 net028 vdd! gpdk090_pmos1v l=100e-9 w=565e-9 ad=158.2e-15 as=158.2e-15 pd=1.69e-6 ps=1.69e-6 m=1
 mpm0 net028 in2 vdd! vdd! gpdk090_pmos1v l=100e-9 w=565e-9 ad=158.2e-15 as=158.2e-15 pd=1.69e-6 ps=1.69e-6 m=1
 mnm1 out in2 0 0 gpdk090_nmos1v l=100e-9 w=120e-9 ad=69.6e-15 as=69.6e-15 pd=1.16e-6 ps=1.16e-6 m=1
 mnm0 out in1 0 0 gpdk090_nmos1v l=100e-9 w=120e-9 ad=69.6e-15 as=69.6e-15 pd=1.16e-6 ps=1.16e-6 m=1
 .ends nor
 ** end of subcircuit definition.

 ** library name: sram
 ** cell name: nand
 ** view name: schematic
 .subckt nand in1 in2 out
 mpm1 out in2 vdd! vdd! gpdk090_pmos1v l=100e-9 w=710e-9 ad=198.8e-15 as=198.8e-15 pd=1.98e-6 ps=1.98e-6 m=1
 mpm0 out in1 vdd! vdd! gpdk090_pmos1v l=100e-9 w=710e-9 ad=198.8e-15 as=198.8e-15 pd=1.98e-6 ps=1.98e-6 m=1
 mnm1 net11 in2 0 0 gpdk090_nmos1v l=100e-9 w=600e-9 ad=168e-15 as=168e-15 pd=1.76e-6 ps=1.76e-6 m=1
 mnm0 out in1 net11 0 gpdk090_nmos1v l=100e-9 w=600e-9 ad=168e-15 as=168e-15 pd=1.76e-6 ps=1.76e-6 m=1
 .ends nand
 ** end of subcircuit definition.

 ** library name: sram
 ** cell name: full_predecoder
 ** view name: schematic
 .subckt full_predecoder en in0 in0b in1 in1b in2 in2b in3 in3b wl0 wl1 wl10 wl11 wl12 wl13 wl14 wl15 wl2 wl3 wl4 wl5 wl6 wl7 wl8 wl9
 xi39 net62 en wl0 nand2
 xi38 net65 en wl1 nand2
 xi37 net74 en wl2 nand2
 xi36 net77 en wl3 nand2
 xi35 net80 en wl4 nand2
 xi34 net83 en wl5 nand2
 xi33 net86 en wl6 nand2
 xi32 net89 en wl7 nand2
 xi31 net92 en wl8 nand2
 xi30 net95 en wl9 nand2
 xi29 net98 en wl10 nand2
 xi28 net101 en wl11 nand2
 xi27 net104 en wl12 nand2
 xi26 net71 en wl13 nand2
 xi25 net68 en wl14 nand2
 xi24 net59 en wl15 nand2
 xi23 net58 net99 net59 nor
 xi22 net61 net90 net62 nor
 xi21 net61 net81 net65 nor
 xi20 net58 net96 net68 nor
 xi19 net58 net81 net71 nor
 xi18 net61 net96 net74 nor
 xi17 net61 net99 net77 nor
 xi16 net79 net90 net80 nor
 xi15 net79 net81 net83 nor
 xi14 net79 net96 net86 nor
 xi13 net79 net99 net89 nor
 xi12 net97 net90 net92 nor
 xi11 net97 net81 net95 nor
 xi10 net97 net96 net98 nor
 xi9 net97 net99 net101 nor
 xi8 net58 net90 net104 nor
 xi7 in1b in0 net81 nand
 xi6 in1b in0b net90 nand
 xi5 in1 in0b net96 nand
 xi4 in1 in0 net99 nand
 xi3 in3b in2b net61 nand
 xi2 in3b in2 net79 nand
 xi1 in3 in2b net97 nand
 xi0 in3 in2 net58 nand
 .ends full_predecoder
 ** end of subcircuit definition.

 ** library name: sram
 ** cell name: output_buffer
 ** view name: schematic
 .subckt output_buffer bl bl_out blb blb_out
 mnm1 blb_out bl 0 0 gpdk090_nmos1v l=100e-9 w=280e-9 ad=44.8e-15 as=78.4e-15 pd=600e-9 ps=1.12e-6 m=2
 mnm0 bl_out blb 0 0 gpdk090_nmos1v l=100e-9 w=280e-9 ad=44.8e-15 as=78.4e-15 pd=600e-9 ps=1.12e-6 m=2
 mpm0 bl_out blb vdd! vdd! gpdk090_pmos1v l=100e-9 w=560e-9 ad=89.6e-15 as=156.8e-15 pd=880e-9 ps=1.68e-6 m=2
 mpm1 blb_out bl vdd! vdd! gpdk090_pmos1v l=100e-9 w=560e-9 ad=89.6e-15 as=156.8e-15 pd=880e-9 ps=1.68e-6 m=2
 .ends output_buffer
 ** end of subcircuit definition.

 ** library name: sram
 ** cell name: pulldown
 ** view name: schematic
 .subckt pulldown bl data en write blb data_b
 mnm2 blb en net022 0 gpdk090_nmos1v l=100e-9 w=550e-9 ad=154e-15 as=154e-15 pd=1.66e-6 ps=1.66e-6 m=1
 mnm4 net022 write net018 0 gpdk090_nmos1v l=100e-9 w=550e-9 ad=154e-15 as=154e-15 pd=1.66e-6 ps=1.66e-6 m=1
 mnm5 net018 data 0 0 gpdk090_nmos1v l=100e-9 w=550e-9 ad=154e-15 as=154e-15 pd=1.66e-6 ps=1.66e-6 m=1
 mnm1 bl en net9 0 gpdk090_nmos1v l=100e-9 w=550e-9 ad=154e-15 as=154e-15 pd=1.66e-6 ps=1.66e-6 m=1
 mnm0 net9 write net13 0 gpdk090_nmos1v l=100e-9 w=550e-9 ad=154e-15 as=154e-15 pd=1.66e-6 ps=1.66e-6 m=1
 mnm3 net13 data_b 0 0 gpdk090_nmos1v l=100e-9 w=550e-9 ad=154e-15 as=154e-15 pd=1.66e-6 ps=1.66e-6 m=1
 .ends pulldown
 ** end of subcircuit definition.

 ** library name: sram
 ** cell name: precharge
 ** view name: schematic
 .subckt precharge bl blb en
 mpm0 bl en vdd! vdd! gpdk090_pmos1v l=100e-9 w=240e-9 ad=38.4e-15 as=67.2e-15 pd=560e-9 ps=1.04e-6 m=2
 mpm1 blb en vdd! vdd! gpdk090_pmos1v l=100e-9 w=240e-9 ad=38.4e-15 as=67.2e-15 pd=560e-9 ps=1.04e-6 m=2
 .ends precharge
 ** end of subcircuit definition.

 ** library name: sram
 ** cell name: sram_cell
 ** view name: schematic
 .subckt sram_cell bl blb wl
 mnm3 net18 net12 0 0 gpdk090_nmos1v l=100e-9 w=270e-9 ad=75.6e-15 as=75.6e-15 pd=1.1e-6 ps=1.1e-6 m=1
 mnm2 net18 wl blb 0 gpdk090_nmos1v l=100e-9 w=120e-9 ad=69.6e-15 as=69.6e-15 pd=1.16e-6 ps=1.16e-6 m=1
 mnm0 net12 wl bl 0 gpdk090_nmos1v l=100e-9 w=120e-9 ad=69.6e-15 as=69.6e-15 pd=1.16e-6 ps=1.16e-6 m=1
 mnm1 net12 net18 0 0 gpdk090_nmos1v l=100e-9 w=270e-9 ad=75.6e-15 as=75.6e-15 pd=1.1e-6 ps=1.1e-6 m=1
 mpm1 net18 net12 vdd! vdd! gpdk090_pmos1v l=100e-9 w=120e-9 ad=69.6e-15 as=69.6e-15 pd=1.16e-6 ps=1.16e-6 m=1
 mpm0 net12 net18 vdd! vdd! gpdk090_pmos1v l=100e-9 w=120e-9 ad=69.6e-15 as=69.6e-15 pd=1.16e-6 ps=1.16e-6 m=1
 .ends sram_cell
 ** end of subcircuit definition.

 ** library name: sram
 ** cell name: sram_row
 ** view name: schematic
 .subckt sram_row bl0 bl1 bl2 bl3 blb0 blb1 blb2 blb3 wl
 xi3 bl3 blb3 wl sram_cell
 xi2 bl2 blb2 wl sram_cell
 xi1 bl1 blb1 wl sram_cell
 xi0 bl0 blb0 wl sram_cell
 .ends sram_row
 ** end of subcircuit definition.

 ** library name: inv_1x
 ** cell name: inv_1x
 ** view name: schematic
 .subckt inv_1x_schematic in out
 mnm1 out in 0 0 gpdk090_nmos1v l=100e-9 w=160e-9 ad=44.8e-15 as=73.6e-15 pd=680e-9 ps=1.16e-6 m=2
 mpm2 out in vdd! vdd! gpdk090_pmos1v l=100e-9 w=380e-9 ad=60.8e-15 as=106.4e-15 pd=700e-9 ps=1.32e-6 m=2
 .ends inv_1x_schematic
 ** end of subcircuit definition.

 ** library name: sram
 ** cell name: postdecoder
 ** view name: schematic
 .subckt postdecoder in out
 xi1 in out inv_1x_schematic
 .ends postdecoder
 ** end of subcircuit definition.

 ** library name: sram
 ** cell name: sram_row_and_postdecoder
 ** view name: schematic
 .subckt sram_row_and_postdecoder bl0 bl1 bl2 bl3 blb0 blb1 blb2 blb3 in
 xi1 bl0 bl1 bl2 bl3 blb0 blb1 blb2 blb3 net1 sram_row
 xi0 in net1 postdecoder
 .ends sram_row_and_postdecoder
 ** end of subcircuit definition.

 ** library name: sram
 ** cell name: sram_block
 ** view name: schematic
 .subckt sram_block bl0 bl1 bl2 bl3 blb0 blb1 blb2 blb3 data0 data1 data2 data3 data_b0 data_b1 data_b2 data_b3 en in0 in1 in10 in11 in12 in13 in14 in15 in2 in3 in4 in6 in7 in8 in9 write in5
 xi27 net331 blb3 net330 bl3 output_buffer
 xi24 net339 bl0 net340 blb0 output_buffer
 xi25 net337 blb1 net336 bl1 output_buffer
 xi26 net334 blb2 net333 bl2 output_buffer
 xi20 net331 data0 en write net330 data_b0 pulldown
 xi21 net334 data1 en write net333 data_b1 pulldown
 xi22 net337 data2 en write net336 data_b2 pulldown
 xi23 net340 data3 en write net339 data_b3 pulldown
 xi16 net331 net330 en precharge
 xi17 net334 net333 en precharge
 xi18 net337 net336 en precharge
 xi19 net340 net339 en precharge
 xi15 net340 net337 net334 net331 net339 net336 net333 net330 in3 sram_row_and_postdecoder
 xi14 net340 net337 net334 net331 net339 net336 net333 net330 in2 sram_row_and_postdecoder
 xi13 net340 net337 net334 net331 net339 net336 net333 net330 in1 sram_row_and_postdecoder
 xi12 net340 net337 net334 net331 net339 net336 net333 net330 in0 sram_row_and_postdecoder
 xi11 net340 net337 net334 net331 net339 net336 net333 net330 in15 sram_row_and_postdecoder
 xi10 net340 net337 net334 net331 net339 net336 net333 net330 in14 sram_row_and_postdecoder
 xi9 net340 net337 net334 net331 net339 net336 net333 net330 in13 sram_row_and_postdecoder
 xi8 net340 net337 net334 net331 net339 net336 net333 net330 in12 sram_row_and_postdecoder
 xi7 net340 net337 net334 net331 net339 net336 net333 net330 in11 sram_row_and_postdecoder
 xi6 net340 net337 net334 net331 net339 net336 net333 net330 in10 sram_row_and_postdecoder
 xi5 net340 net337 net334 net331 net339 net336 net333 net330 in9 sram_row_and_postdecoder
 xi4 net340 net337 net334 net331 net339 net336 net333 net330 in8 sram_row_and_postdecoder
 xi3 net340 net337 net334 net331 net339 net336 net333 net330 in7 sram_row_and_postdecoder
 xi2 net340 net337 net334 net331 net339 net336 net333 net330 in6 sram_row_and_postdecoder
 xi1 net340 net337 net334 net331 net339 net336 net333 net330 in5 sram_row_and_postdecoder
 xi0 net340 net337 net334 net331 net339 net336 net333 net330 in4 sram_row_and_postdecoder
 .ends sram_block
 ** end of subcircuit definition.

 ** library name: sram
 ** cell name: 5_6_lut
 ** view name: schematic
 .subckt sram_5_6_lut_schematic data0 data1 data2 data3 data_b0 data_b1 data_b2 data_b3 en in0 in1 in2 in3 out0 out1 out2 out3 write
 xi5 in3 net14 inv_1x
 xi4 in2 net16 inv_1x
 xi3 in1 net18 inv_1x
 xi2 in0 net20 inv_1x
 xi1 en in0 net20 in1 net18 in2 net16 in3 net14 net45 net44 net35 net34 net33 net32 net31 net30 net43 net42 net41 net0193 net39 net38 net37 net36 full_predecoder
 xi0 out0 out1 out2 out3 net69 net68 net67 net66 data0 data1 data2 data3 data_b0 data_b1 data_b2 data_b3 en net45 net44 net35 net34 net33 net32 net31 net30 net43 net42 net41 net39 net38 net37 net36 write net0193 sram_block
 .ends sram_5_6_lut_schematic
 ** end of subcircuit definition.

 ** library name: sram
 ** cell name: slice
 ** view name: schematic
 .subckt slice a_data_0 a_data_1 a_data_2 a_data_3 a_data_b0 a_data_b1 a_data_b2 a_data_b3 asout0 asout1 ax b_data_0 b_data_1 b_data_2 b_data_3 b_data_b0 b_data_b1 b_data_b2 b_data_b3 bsout0 bsout1 bx c_data_0 c_data_1 c_data_2 c_data_3 c_data_b0 c_data_b1 c_data_b2 c_data_b3 cin cout csout0 csout1 cx d_data_0 d_data_1 d_data_2 d_data_3 d_data_b0 d_data_b1 d_data_b2 d_data_b3 dsout0 dsout1 en ina0 ina1 ina2 ina3 ina4 ina5 inb0 inb1 inb2 inb3 inb4 inb5 inc0 inc1 inc2 inc3 inc4 inc5 ind0 ind1 ind2 ind3 ind4 ind5 out0 out1 out2 out3 out4 out5 out6 out7 write
 xi4 cin asout0 asout1 ax bsout0 bsout1 bx cout csout0 csout1 cx dsout0 dsout1 ina4 ina5 inb4 inb5 inc4 inc5 ind4 ind5 net81 net80 net103 net102 net0228 net92 net91 net90 net79 net78 net0237 net116 net115 net0234 net0233 net104 out0 out1 out2 out3 out4 out5 out6 out7 mux_vertical_logic
 xi3 a_data_0 a_data_1 a_data_2 a_data_3 a_data_b0 a_data_b1 a_data_b2 a_data_b3 en ina0 ina1 ina2 ina3 net81 net80 net79 net78 write sram_5_6_lut_schematic
 xi2 d_data_0 d_data_1 d_data_2 d_data_3 d_data_b0 d_data_b1 d_data_b2 d_data_b3 en ind0 ind1 ind2 ind3 net0228 net92 net91 net90 write sram_5_6_lut_schematic
 xi1 c_data_0 c_data_1 c_data_2 c_data_3 c_data_b0 c_data_b1 c_data_b2 c_data_b3 en inc0 inc1 inc2 inc3 net0233 net104 net103 net102 write sram_5_6_lut_schematic
 xi0 b_data_0 b_data_1 b_data_2 b_data_3 b_data_b0 b_data_b1 b_data_b2 b_data_b3 en inb0 inb1 inb2 inb3 net0237 net116 net115 net0234 write sram_5_6_lut_schematic
 .ends slice
 ** end of subcircuit definition.

 ** if you use a global vdd in muxverticallogic.sp, you need to add the
 ** following syntax
 .global vdd! 0
 vdd vdd! 0 dc vdd_val

 ** or if vdd is an input
 * vdd vdd 0 dc vdd_val

 ** wire the inputs l<15:0>, ina<5:4>, inb<5:4>, inc<5:4>, ind<5:4>, ax, bx,
 ** cx, cin, asout<1:0>, bsout<1:0>, csout<1:0>, dsout<1:0>, and outputs
 ** out<8:0>, cout, to an instance of your mux/vertical logic block here. only
 ** the names at this level of the deck need to be as you see them here. make
 ** sure to order the inputs in accordance to the order of your implementation.

 ** mux / vertical logic block **
 xslice a_data<0> a_data<1> a_data<2> a_data<3> a_data_b<0> a_data_b<1> a_data_b<2> a_data_b<3> asout<0> asout<1> ax b_data<0> b_data<1> b_data<2> b_data<3> b_data_b<0> b_data_b<1> b_data_b<2> b_data_b<3> bsout<0> bsout<1> bx c_data<0> c_data<1> c_data<2> c_data<3> c_data_b<0> c_data_b<1> c_data_b<2> c_data_b<3> cin cout csout<0> csout<1> cx d_data<0> d_data<1> d_data<2> d_data<3> d_data_b<0> d_data_b<1> d_data_b<2> d_data_b<3> dsout<0> dsout<1> en ina<0> ina<1> ina<2> ina<3> ina<4> ina<5> inb<0> inb<1> inb<2> inb<3> inb<4> inb<5> inc<0> inc<1> inc<2> inc<3> inc<4> inc<5> ind<0> ind<1> ind<2> ind<3> ind<4> ind<5> out<0> out<1> out<2> out<3> out<4> out<5> out<6> out<7> write slice
 ** arrange these inputs in the order your subckt dictates
 *+ l<15> l<14> ... l<1> l<0>
 *+ ina<5> ina<4> ... ind<5> ind<4>
 *+ asout<1> asout<0> ... dsout<1> dsout<0> 
 *+ ax bx cx cin
 *+ out<8> out<7> ... out<1> out<0>
 *+ cout
 *+ slice

 ** load caps **
 cout0 out<0> 0 capval
 cout1 out<1> 0 capval
 cout2 out<2> 0 capval
 cout3 out<3> 0 capval
 cout4 out<4> 0 capval
 cout5 out<5> 0 capval
 cout6 out<6> 0 capval
 cout7 out<7> 0 capval
 ccout cout 0 capval

 ** dummy caps - used for verification **
 cdum0 out_exp<0> 0 capval
 cdum1 out_exp<1> 0 capval
 cdum2 out_exp<2> 0 capval
 cdum3 out_exp<3> 0 capval
 cdum4 out_exp<4> 0 capval
 cdum5 out_exp<5> 0 capval
 cdum6 out_exp<6> 0 capval
 cdum7 out_exp<7> 0 capval
 cdumc cout_exp 0 capval

 ** stimulus **
 .vec 'func_check.vec'

 ** control info **
 .options post=2 nomod
 .op

 ** transient simulation
 .tran .1ns 10ns

 .end

 ***********************************************************************
 ** runlvl is invoked, you can disable it by:
      a) Add option runlvl=0 to your current simulation job.
      b) Copy $installdir/hspice.ini to your HOME directory and
         customize it by adding option runlvl=0, which disables
         it for all of your simulation jobs.
      c) Re-invoke $installdir/bin/config program and unselect the
         option runlvl setting in box 'hspice.ini' which disables
         it for whole group simulation jobs.

 ** runlvl is invoked, some options are ignored or automatically set:
      Options below are automatically set(user setting will overwrite them):
      if runlvl=[1|2|3|4|5|6],  .option bypass=2

      Options below are ignored, they are replaced by automated algorithms:
        lvltim    dvdt      ft    fast   trtol  absvar  relvar
          relq  chgtol    dvtr    imin    itl3    rmax

 ** runlvl is invoked, actual option value used by HSPICE are:
       runlvl= 3       bypass= 2      mbypass=   2.00   bytol= 100.00u
 ***********************************************************************

1****** HSPICE -- A-2008.03-SP1 32-BIT (May 26 2008) linux ******               
 ******  
 ** ee 141 term project fall 2012 phase ii - mux and vertical logic block **

  ******  circuit name directory
 circuit number to circuit name directory
   number circuitname                     definition         multiplier
        0 main circuit
        1 xslice.                         slice              1.00 
        2 xslice.xi4.                     mux_vertical_logic
                                                                 1.00 
        3 xslice.xi3.                     sram_5_6_lut_schematic
                                                                 1.00 
        4 xslice.xi2.                     sram_5_6_lut_schematic
                                                                 1.00 
        5 xslice.xi1.                     sram_5_6_lut_schematic
                                                                 1.00 
        6 xslice.xi0.                     sram_5_6_lut_schematic
                                                                 1.00 
        7 xslice.xi4.xi17.                inv_1x             1.00 
        8 xslice.xi4.xi16.                inv_1x             1.00 
        9 xslice.xi4.xi15.                inv_1x             1.00 
       10 xslice.xi4.xi13.                mux2               1.00 
       11 xslice.xi4.xi12.                mux2               1.00 
       12 xslice.xi4.xi14.                mux2               1.00 
       13 xslice.xi4.xi11.                sram_5_6_lut_output_decoder_schematic
                                                                 1.00 
       14 xslice.xi4.xi10.                sram_5_6_lut_output_decoder_schematic
                                                                 1.00 
       15 xslice.xi4.xi9.                 sram_5_6_lut_output_decoder_schematic
                                                                 1.00 
       16 xslice.xi4.xi8.                 sram_5_6_lut_output_decoder_schematic
                                                                 1.00 
       17 xslice.xi4.xi4.                 mux_vertical_logic_sub
                                                                 1.00 
       18 xslice.xi4.xi7.                 mux_vertical_logic_sub
                                                                 1.00 
       19 xslice.xi4.xi5.                 mux_vertical_logic_sub
                                                                 1.00 
       20 xslice.xi4.xi6.                 mux_vertical_logic_sub
                                                                 1.00 
       21 xslice.xi3.xi5.                 inv_1x             1.00 
       22 xslice.xi3.xi4.                 inv_1x             1.00 
       23 xslice.xi3.xi3.                 inv_1x             1.00 
       24 xslice.xi3.xi2.                 inv_1x             1.00 
       25 xslice.xi3.xi1.                 full_predecoder    1.00 
       26 xslice.xi3.xi0.                 sram_block         1.00 
       27 xslice.xi2.xi5.                 inv_1x             1.00 
       28 xslice.xi2.xi4.                 inv_1x             1.00 
       29 xslice.xi2.xi3.                 inv_1x             1.00 
       30 xslice.xi2.xi2.                 inv_1x             1.00 
       31 xslice.xi2.xi1.                 full_predecoder    1.00 
       32 xslice.xi2.xi0.                 sram_block         1.00 
       33 xslice.xi1.xi5.                 inv_1x             1.00 
       34 xslice.xi1.xi4.                 inv_1x             1.00 
       35 xslice.xi1.xi3.                 inv_1x             1.00 
       36 xslice.xi1.xi2.                 inv_1x             1.00 
       37 xslice.xi1.xi1.                 full_predecoder    1.00 
       38 xslice.xi1.xi0.                 sram_block         1.00 
       39 xslice.xi0.xi5.                 inv_1x             1.00 
       40 xslice.xi0.xi4.                 inv_1x             1.00 
       41 xslice.xi0.xi3.                 inv_1x             1.00 
       42 xslice.xi0.xi2.                 inv_1x             1.00 
       43 xslice.xi0.xi1.                 full_predecoder    1.00 
       44 xslice.xi0.xi0.                 sram_block         1.00 
       45 xslice.xi4.xi11.xi3.            inv_1x             1.00 
       46 xslice.xi4.xi11.xi4.            inv_1x             1.00 
       47 xslice.xi4.xi11.xi2.            mux2               1.00 
       48 xslice.xi4.xi11.xi1.            mux2               1.00 
       49 xslice.xi4.xi11.xi0.            mux2               1.00 
       50 xslice.xi4.xi10.xi3.            inv_1x             1.00 
       51 xslice.xi4.xi10.xi4.            inv_1x             1.00 
       52 xslice.xi4.xi10.xi2.            mux2               1.00 
       53 xslice.xi4.xi10.xi1.            mux2               1.00 
       54 xslice.xi4.xi10.xi0.            mux2               1.00 
       55 xslice.xi4.xi9.xi3.             inv_1x             1.00 
       56 xslice.xi4.xi9.xi4.             inv_1x             1.00 
       57 xslice.xi4.xi9.xi2.             mux2               1.00 
       58 xslice.xi4.xi9.xi1.             mux2               1.00 
       59 xslice.xi4.xi9.xi0.             mux2               1.00 
       60 xslice.xi4.xi8.xi3.             inv_1x             1.00 
       61 xslice.xi4.xi8.xi4.             inv_1x             1.00 
       62 xslice.xi4.xi8.xi2.             mux2               1.00 
       63 xslice.xi4.xi8.xi1.             mux2               1.00 
       64 xslice.xi4.xi8.xi0.             mux2               1.00 
       65 xslice.xi4.xi4.xi5.             xor                1.00 
       66 xslice.xi4.xi4.xi12.            inv_1x             1.00 
       67 xslice.xi4.xi4.xi10.            inv_1x             1.00 
       68 xslice.xi4.xi4.xi7.             inv_1x             1.00 
       69 xslice.xi4.xi4.xi1.             inv_1x             1.00 
       70 xslice.xi4.xi4.xi6.             inv_1x             1.00 
       71 xslice.xi4.xi4.xi11.            mux2               1.00 
       72 xslice.xi4.xi4.xi9.             mux2               1.00 
       73 xslice.xi4.xi4.xi8.             mux2               1.00 
       74 xslice.xi4.xi4.xi0.             mux2               1.00 
       75 xslice.xi4.xi7.xi5.             xor                1.00 
       76 xslice.xi4.xi7.xi12.            inv_1x             1.00 
       77 xslice.xi4.xi7.xi10.            inv_1x             1.00 
       78 xslice.xi4.xi7.xi7.             inv_1x             1.00 
       79 xslice.xi4.xi7.xi1.             inv_1x             1.00 
       80 xslice.xi4.xi7.xi6.             inv_1x             1.00 
       81 xslice.xi4.xi7.xi11.            mux2               1.00 
       82 xslice.xi4.xi7.xi9.             mux2               1.00 
       83 xslice.xi4.xi7.xi8.             mux2               1.00 
       84 xslice.xi4.xi7.xi0.             mux2               1.00 
       85 xslice.xi4.xi5.xi5.             xor                1.00 
       86 xslice.xi4.xi5.xi12.            inv_1x             1.00 
       87 xslice.xi4.xi5.xi10.            inv_1x             1.00 
       88 xslice.xi4.xi5.xi7.             inv_1x             1.00 
       89 xslice.xi4.xi5.xi1.             inv_1x             1.00 
       90 xslice.xi4.xi5.xi6.             inv_1x             1.00 
       91 xslice.xi4.xi5.xi11.            mux2               1.00 
       92 xslice.xi4.xi5.xi9.             mux2               1.00 
       93 xslice.xi4.xi5.xi8.             mux2               1.00 
       94 xslice.xi4.xi5.xi0.             mux2               1.00 
       95 xslice.xi4.xi6.xi5.             xor                1.00 
       96 xslice.xi4.xi6.xi12.            inv_1x             1.00 
       97 xslice.xi4.xi6.xi10.            inv_1x             1.00 
       98 xslice.xi4.xi6.xi7.             inv_1x             1.00 
       99 xslice.xi4.xi6.xi1.             inv_1x             1.00 
      100 xslice.xi4.xi6.xi6.             inv_1x             1.00 
      101 xslice.xi4.xi6.xi11.            mux2               1.00 
      102 xslice.xi4.xi6.xi9.             mux2               1.00 
      103 xslice.xi4.xi6.xi8.             mux2               1.00 
      104 xslice.xi4.xi6.xi0.             mux2               1.00 
      105 xslice.xi3.xi1.xi39.            nand2              1.00 
      106 xslice.xi3.xi1.xi38.            nand2              1.00 
      107 xslice.xi3.xi1.xi37.            nand2              1.00 
      108 xslice.xi3.xi1.xi36.            nand2              1.00 
      109 xslice.xi3.xi1.xi35.            nand2              1.00 
      110 xslice.xi3.xi1.xi34.            nand2              1.00 
      111 xslice.xi3.xi1.xi33.            nand2              1.00 
      112 xslice.xi3.xi1.xi32.            nand2              1.00 
      113 xslice.xi3.xi1.xi31.            nand2              1.00 
      114 xslice.xi3.xi1.xi30.            nand2              1.00 
      115 xslice.xi3.xi1.xi29.            nand2              1.00 
      116 xslice.xi3.xi1.xi28.            nand2              1.00 
      117 xslice.xi3.xi1.xi27.            nand2              1.00 
      118 xslice.xi3.xi1.xi26.            nand2              1.00 
      119 xslice.xi3.xi1.xi25.            nand2              1.00 
      120 xslice.xi3.xi1.xi24.            nand2              1.00 
      121 xslice.xi3.xi1.xi23.            nor                1.00 
      122 xslice.xi3.xi1.xi22.            nor                1.00 
      123 xslice.xi3.xi1.xi21.            nor                1.00 
      124 xslice.xi3.xi1.xi20.            nor                1.00 
      125 xslice.xi3.xi1.xi19.            nor                1.00 
      126 xslice.xi3.xi1.xi18.            nor                1.00 
      127 xslice.xi3.xi1.xi17.            nor                1.00 
      128 xslice.xi3.xi1.xi16.            nor                1.00 
      129 xslice.xi3.xi1.xi15.            nor                1.00 
      130 xslice.xi3.xi1.xi14.            nor                1.00 
      131 xslice.xi3.xi1.xi13.            nor                1.00 
      132 xslice.xi3.xi1.xi12.            nor                1.00 
      133 xslice.xi3.xi1.xi11.            nor                1.00 
      134 xslice.xi3.xi1.xi10.            nor                1.00 
      135 xslice.xi3.xi1.xi9.             nor                1.00 
      136 xslice.xi3.xi1.xi8.             nor                1.00 
      137 xslice.xi3.xi1.xi7.             nand               1.00 
      138 xslice.xi3.xi1.xi6.             nand               1.00 
      139 xslice.xi3.xi1.xi5.             nand               1.00 
      140 xslice.xi3.xi1.xi4.             nand               1.00 
      141 xslice.xi3.xi1.xi3.             nand               1.00 
      142 xslice.xi3.xi1.xi2.             nand               1.00 
      143 xslice.xi3.xi1.xi1.             nand               1.00 
      144 xslice.xi3.xi1.xi0.             nand               1.00 
      145 xslice.xi3.xi0.xi27.            output_buffer      1.00 
      146 xslice.xi3.xi0.xi24.            output_buffer      1.00 
      147 xslice.xi3.xi0.xi25.            output_buffer      1.00 
      148 xslice.xi3.xi0.xi26.            output_buffer      1.00 
      149 xslice.xi3.xi0.xi20.            pulldown           1.00 
      150 xslice.xi3.xi0.xi21.            pulldown           1.00 
      151 xslice.xi3.xi0.xi22.            pulldown           1.00 
      152 xslice.xi3.xi0.xi23.            pulldown           1.00 
      153 xslice.xi3.xi0.xi16.            precharge          1.00 
      154 xslice.xi3.xi0.xi17.            precharge          1.00 
      155 xslice.xi3.xi0.xi18.            precharge          1.00 
      156 xslice.xi3.xi0.xi19.            precharge          1.00 
      157 xslice.xi3.xi0.xi15.            sram_row_and_postdecoder
                                                                 1.00 
      158 xslice.xi3.xi0.xi14.            sram_row_and_postdecoder
                                                                 1.00 
      159 xslice.xi3.xi0.xi13.            sram_row_and_postdecoder
                                                                 1.00 
      160 xslice.xi3.xi0.xi12.            sram_row_and_postdecoder
                                                                 1.00 
      161 xslice.xi3.xi0.xi11.            sram_row_and_postdecoder
                                                                 1.00 
      162 xslice.xi3.xi0.xi10.            sram_row_and_postdecoder
                                                                 1.00 
      163 xslice.xi3.xi0.xi9.             sram_row_and_postdecoder
                                                                 1.00 
      164 xslice.xi3.xi0.xi8.             sram_row_and_postdecoder
                                                                 1.00 
      165 xslice.xi3.xi0.xi7.             sram_row_and_postdecoder
                                                                 1.00 
      166 xslice.xi3.xi0.xi6.             sram_row_and_postdecoder
                                                                 1.00 
      167 xslice.xi3.xi0.xi5.             sram_row_and_postdecoder
                                                                 1.00 
      168 xslice.xi3.xi0.xi4.             sram_row_and_postdecoder
                                                                 1.00 
      169 xslice.xi3.xi0.xi3.             sram_row_and_postdecoder
                                                                 1.00 
      170 xslice.xi3.xi0.xi2.             sram_row_and_postdecoder
                                                                 1.00 
      171 xslice.xi3.xi0.xi1.             sram_row_and_postdecoder
                                                                 1.00 
      172 xslice.xi3.xi0.xi0.             sram_row_and_postdecoder
                                                                 1.00 
      173 xslice.xi2.xi1.xi39.            nand2              1.00 
      174 xslice.xi2.xi1.xi38.            nand2              1.00 
      175 xslice.xi2.xi1.xi37.            nand2              1.00 
      176 xslice.xi2.xi1.xi36.            nand2              1.00 
      177 xslice.xi2.xi1.xi35.            nand2              1.00 
      178 xslice.xi2.xi1.xi34.            nand2              1.00 
      179 xslice.xi2.xi1.xi33.            nand2              1.00 
      180 xslice.xi2.xi1.xi32.            nand2              1.00 
      181 xslice.xi2.xi1.xi31.            nand2              1.00 
      182 xslice.xi2.xi1.xi30.            nand2              1.00 
      183 xslice.xi2.xi1.xi29.            nand2              1.00 
      184 xslice.xi2.xi1.xi28.            nand2              1.00 
      185 xslice.xi2.xi1.xi27.            nand2              1.00 
      186 xslice.xi2.xi1.xi26.            nand2              1.00 
      187 xslice.xi2.xi1.xi25.            nand2              1.00 
      188 xslice.xi2.xi1.xi24.            nand2              1.00 
      189 xslice.xi2.xi1.xi23.            nor                1.00 
      190 xslice.xi2.xi1.xi22.            nor                1.00 
      191 xslice.xi2.xi1.xi21.            nor                1.00 
      192 xslice.xi2.xi1.xi20.            nor                1.00 
      193 xslice.xi2.xi1.xi19.            nor                1.00 
      194 xslice.xi2.xi1.xi18.            nor                1.00 
      195 xslice.xi2.xi1.xi17.            nor                1.00 
      196 xslice.xi2.xi1.xi16.            nor                1.00 
      197 xslice.xi2.xi1.xi15.            nor                1.00 
      198 xslice.xi2.xi1.xi14.            nor                1.00 
      199 xslice.xi2.xi1.xi13.            nor                1.00 
      200 xslice.xi2.xi1.xi12.            nor                1.00 
      201 xslice.xi2.xi1.xi11.            nor                1.00 
      202 xslice.xi2.xi1.xi10.            nor                1.00 
      203 xslice.xi2.xi1.xi9.             nor                1.00 
      204 xslice.xi2.xi1.xi8.             nor                1.00 
      205 xslice.xi2.xi1.xi7.             nand               1.00 
      206 xslice.xi2.xi1.xi6.             nand               1.00 
      207 xslice.xi2.xi1.xi5.             nand               1.00 
      208 xslice.xi2.xi1.xi4.             nand               1.00 
      209 xslice.xi2.xi1.xi3.             nand               1.00 
      210 xslice.xi2.xi1.xi2.             nand               1.00 
      211 xslice.xi2.xi1.xi1.             nand               1.00 
      212 xslice.xi2.xi1.xi0.             nand               1.00 
      213 xslice.xi2.xi0.xi27.            output_buffer      1.00 
      214 xslice.xi2.xi0.xi24.            output_buffer      1.00 
      215 xslice.xi2.xi0.xi25.            output_buffer      1.00 
      216 xslice.xi2.xi0.xi26.            output_buffer      1.00 
      217 xslice.xi2.xi0.xi20.            pulldown           1.00 
      218 xslice.xi2.xi0.xi21.            pulldown           1.00 
      219 xslice.xi2.xi0.xi22.            pulldown           1.00 
      220 xslice.xi2.xi0.xi23.            pulldown           1.00 
      221 xslice.xi2.xi0.xi16.            precharge          1.00 
      222 xslice.xi2.xi0.xi17.            precharge          1.00 
      223 xslice.xi2.xi0.xi18.            precharge          1.00 
      224 xslice.xi2.xi0.xi19.            precharge          1.00 
      225 xslice.xi2.xi0.xi15.            sram_row_and_postdecoder
                                                                 1.00 
      226 xslice.xi2.xi0.xi14.            sram_row_and_postdecoder
                                                                 1.00 
      227 xslice.xi2.xi0.xi13.            sram_row_and_postdecoder
                                                                 1.00 
      228 xslice.xi2.xi0.xi12.            sram_row_and_postdecoder
                                                                 1.00 
      229 xslice.xi2.xi0.xi11.            sram_row_and_postdecoder
                                                                 1.00 
      230 xslice.xi2.xi0.xi10.            sram_row_and_postdecoder
                                                                 1.00 
      231 xslice.xi2.xi0.xi9.             sram_row_and_postdecoder
                                                                 1.00 
      232 xslice.xi2.xi0.xi8.             sram_row_and_postdecoder
                                                                 1.00 
      233 xslice.xi2.xi0.xi7.             sram_row_and_postdecoder
                                                                 1.00 
      234 xslice.xi2.xi0.xi6.             sram_row_and_postdecoder
                                                                 1.00 
      235 xslice.xi2.xi0.xi5.             sram_row_and_postdecoder
                                                                 1.00 
      236 xslice.xi2.xi0.xi4.             sram_row_and_postdecoder
                                                                 1.00 
      237 xslice.xi2.xi0.xi3.             sram_row_and_postdecoder
                                                                 1.00 
      238 xslice.xi2.xi0.xi2.             sram_row_and_postdecoder
                                                                 1.00 
      239 xslice.xi2.xi0.xi1.             sram_row_and_postdecoder
                                                                 1.00 
      240 xslice.xi2.xi0.xi0.             sram_row_and_postdecoder
                                                                 1.00 
      241 xslice.xi1.xi1.xi39.            nand2              1.00 
      242 xslice.xi1.xi1.xi38.            nand2              1.00 
      243 xslice.xi1.xi1.xi37.            nand2              1.00 
      244 xslice.xi1.xi1.xi36.            nand2              1.00 
      245 xslice.xi1.xi1.xi35.            nand2              1.00 
      246 xslice.xi1.xi1.xi34.            nand2              1.00 
      247 xslice.xi1.xi1.xi33.            nand2              1.00 
      248 xslice.xi1.xi1.xi32.            nand2              1.00 
      249 xslice.xi1.xi1.xi31.            nand2              1.00 
      250 xslice.xi1.xi1.xi30.            nand2              1.00 
      251 xslice.xi1.xi1.xi29.            nand2              1.00 
      252 xslice.xi1.xi1.xi28.            nand2              1.00 
      253 xslice.xi1.xi1.xi27.            nand2              1.00 
      254 xslice.xi1.xi1.xi26.            nand2              1.00 
      255 xslice.xi1.xi1.xi25.            nand2              1.00 
      256 xslice.xi1.xi1.xi24.            nand2              1.00 
      257 xslice.xi1.xi1.xi23.            nor                1.00 
      258 xslice.xi1.xi1.xi22.            nor                1.00 
      259 xslice.xi1.xi1.xi21.            nor                1.00 
      260 xslice.xi1.xi1.xi20.            nor                1.00 
      261 xslice.xi1.xi1.xi19.            nor                1.00 
      262 xslice.xi1.xi1.xi18.            nor                1.00 
      263 xslice.xi1.xi1.xi17.            nor                1.00 
      264 xslice.xi1.xi1.xi16.            nor                1.00 
      265 xslice.xi1.xi1.xi15.            nor                1.00 
      266 xslice.xi1.xi1.xi14.            nor                1.00 
      267 xslice.xi1.xi1.xi13.            nor                1.00 
      268 xslice.xi1.xi1.xi12.            nor                1.00 
      269 xslice.xi1.xi1.xi11.            nor                1.00 
      270 xslice.xi1.xi1.xi10.            nor                1.00 
      271 xslice.xi1.xi1.xi9.             nor                1.00 
      272 xslice.xi1.xi1.xi8.             nor                1.00 
      273 xslice.xi1.xi1.xi7.             nand               1.00 
      274 xslice.xi1.xi1.xi6.             nand               1.00 
      275 xslice.xi1.xi1.xi5.             nand               1.00 
      276 xslice.xi1.xi1.xi4.             nand               1.00 
      277 xslice.xi1.xi1.xi3.             nand               1.00 
      278 xslice.xi1.xi1.xi2.             nand               1.00 
      279 xslice.xi1.xi1.xi1.             nand               1.00 
      280 xslice.xi1.xi1.xi0.             nand               1.00 
      281 xslice.xi1.xi0.xi27.            output_buffer      1.00 
      282 xslice.xi1.xi0.xi24.            output_buffer      1.00 
      283 xslice.xi1.xi0.xi25.            output_buffer      1.00 
      284 xslice.xi1.xi0.xi26.            output_buffer      1.00 
      285 xslice.xi1.xi0.xi20.            pulldown           1.00 
      286 xslice.xi1.xi0.xi21.            pulldown           1.00 
      287 xslice.xi1.xi0.xi22.            pulldown           1.00 
      288 xslice.xi1.xi0.xi23.            pulldown           1.00 
      289 xslice.xi1.xi0.xi16.            precharge          1.00 
      290 xslice.xi1.xi0.xi17.            precharge          1.00 
      291 xslice.xi1.xi0.xi18.            precharge          1.00 
      292 xslice.xi1.xi0.xi19.            precharge          1.00 
      293 xslice.xi1.xi0.xi15.            sram_row_and_postdecoder
                                                                 1.00 
      294 xslice.xi1.xi0.xi14.            sram_row_and_postdecoder
                                                                 1.00 
      295 xslice.xi1.xi0.xi13.            sram_row_and_postdecoder
                                                                 1.00 
      296 xslice.xi1.xi0.xi12.            sram_row_and_postdecoder
                                                                 1.00 
      297 xslice.xi1.xi0.xi11.            sram_row_and_postdecoder
                                                                 1.00 
      298 xslice.xi1.xi0.xi10.            sram_row_and_postdecoder
                                                                 1.00 
      299 xslice.xi1.xi0.xi9.             sram_row_and_postdecoder
                                                                 1.00 
      300 xslice.xi1.xi0.xi8.             sram_row_and_postdecoder
                                                                 1.00 
      301 xslice.xi1.xi0.xi7.             sram_row_and_postdecoder
                                                                 1.00 
      302 xslice.xi1.xi0.xi6.             sram_row_and_postdecoder
                                                                 1.00 
      303 xslice.xi1.xi0.xi5.             sram_row_and_postdecoder
                                                                 1.00 
      304 xslice.xi1.xi0.xi4.             sram_row_and_postdecoder
                                                                 1.00 
      305 xslice.xi1.xi0.xi3.             sram_row_and_postdecoder
                                                                 1.00 
      306 xslice.xi1.xi0.xi2.             sram_row_and_postdecoder
                                                                 1.00 
      307 xslice.xi1.xi0.xi1.             sram_row_and_postdecoder
                                                                 1.00 
      308 xslice.xi1.xi0.xi0.             sram_row_and_postdecoder
                                                                 1.00 
      309 xslice.xi0.xi1.xi39.            nand2              1.00 
      310 xslice.xi0.xi1.xi38.            nand2              1.00 
      311 xslice.xi0.xi1.xi37.            nand2              1.00 
      312 xslice.xi0.xi1.xi36.            nand2              1.00 
      313 xslice.xi0.xi1.xi35.            nand2              1.00 
      314 xslice.xi0.xi1.xi34.            nand2              1.00 
      315 xslice.xi0.xi1.xi33.            nand2              1.00 
      316 xslice.xi0.xi1.xi32.            nand2              1.00 
      317 xslice.xi0.xi1.xi31.            nand2              1.00 
      318 xslice.xi0.xi1.xi30.            nand2              1.00 
      319 xslice.xi0.xi1.xi29.            nand2              1.00 
      320 xslice.xi0.xi1.xi28.            nand2              1.00 
      321 xslice.xi0.xi1.xi27.            nand2              1.00 
      322 xslice.xi0.xi1.xi26.            nand2              1.00 
      323 xslice.xi0.xi1.xi25.            nand2              1.00 
      324 xslice.xi0.xi1.xi24.            nand2              1.00 
      325 xslice.xi0.xi1.xi23.            nor                1.00 
      326 xslice.xi0.xi1.xi22.            nor                1.00 
      327 xslice.xi0.xi1.xi21.            nor                1.00 
      328 xslice.xi0.xi1.xi20.            nor                1.00 
      329 xslice.xi0.xi1.xi19.            nor                1.00 
      330 xslice.xi0.xi1.xi18.            nor                1.00 
      331 xslice.xi0.xi1.xi17.            nor                1.00 
      332 xslice.xi0.xi1.xi16.            nor                1.00 
      333 xslice.xi0.xi1.xi15.            nor                1.00 
      334 xslice.xi0.xi1.xi14.            nor                1.00 
      335 xslice.xi0.xi1.xi13.            nor                1.00 
      336 xslice.xi0.xi1.xi12.            nor                1.00 
      337 xslice.xi0.xi1.xi11.            nor                1.00 
      338 xslice.xi0.xi1.xi10.            nor                1.00 
      339 xslice.xi0.xi1.xi9.             nor                1.00 
      340 xslice.xi0.xi1.xi8.             nor                1.00 
      341 xslice.xi0.xi1.xi7.             nand               1.00 
      342 xslice.xi0.xi1.xi6.             nand               1.00 
      343 xslice.xi0.xi1.xi5.             nand               1.00 
      344 xslice.xi0.xi1.xi4.             nand               1.00 
      345 xslice.xi0.xi1.xi3.             nand               1.00 
      346 xslice.xi0.xi1.xi2.             nand               1.00 
      347 xslice.xi0.xi1.xi1.             nand               1.00 
      348 xslice.xi0.xi1.xi0.             nand               1.00 
      349 xslice.xi0.xi0.xi27.            output_buffer      1.00 
      350 xslice.xi0.xi0.xi24.            output_buffer      1.00 
      351 xslice.xi0.xi0.xi25.            output_buffer      1.00 
      352 xslice.xi0.xi0.xi26.            output_buffer      1.00 
      353 xslice.xi0.xi0.xi20.            pulldown           1.00 
      354 xslice.xi0.xi0.xi21.            pulldown           1.00 
      355 xslice.xi0.xi0.xi22.            pulldown           1.00 
      356 xslice.xi0.xi0.xi23.            pulldown           1.00 
      357 xslice.xi0.xi0.xi16.            precharge          1.00 
      358 xslice.xi0.xi0.xi17.            precharge          1.00 
      359 xslice.xi0.xi0.xi18.            precharge          1.00 
      360 xslice.xi0.xi0.xi19.            precharge          1.00 
      361 xslice.xi0.xi0.xi15.            sram_row_and_postdecoder
                                                                 1.00 
      362 xslice.xi0.xi0.xi14.            sram_row_and_postdecoder
                                                                 1.00 
      363 xslice.xi0.xi0.xi13.            sram_row_and_postdecoder
                                                                 1.00 
      364 xslice.xi0.xi0.xi12.            sram_row_and_postdecoder
                                                                 1.00 
      365 xslice.xi0.xi0.xi11.            sram_row_and_postdecoder
                                                                 1.00 
      366 xslice.xi0.xi0.xi10.            sram_row_and_postdecoder
                                                                 1.00 
      367 xslice.xi0.xi0.xi9.             sram_row_and_postdecoder
                                                                 1.00 
      368 xslice.xi0.xi0.xi8.             sram_row_and_postdecoder
                                                                 1.00 
      369 xslice.xi0.xi0.xi7.             sram_row_and_postdecoder
                                                                 1.00 
      370 xslice.xi0.xi0.xi6.             sram_row_and_postdecoder
                                                                 1.00 
      371 xslice.xi0.xi0.xi5.             sram_row_and_postdecoder
                                                                 1.00 
      372 xslice.xi0.xi0.xi4.             sram_row_and_postdecoder
                                                                 1.00 
      373 xslice.xi0.xi0.xi3.             sram_row_and_postdecoder
                                                                 1.00 
      374 xslice.xi0.xi0.xi2.             sram_row_and_postdecoder
                                                                 1.00 
      375 xslice.xi0.xi0.xi1.             sram_row_and_postdecoder
                                                                 1.00 
      376 xslice.xi0.xi0.xi0.             sram_row_and_postdecoder
                                                                 1.00 
      377 xslice.xi3.xi0.xi15.xi1.        sram_row           1.00 
      378 xslice.xi3.xi0.xi15.xi0.        postdecoder        1.00 
      379 xslice.xi3.xi0.xi14.xi1.        sram_row           1.00 
      380 xslice.xi3.xi0.xi14.xi0.        postdecoder        1.00 
      381 xslice.xi3.xi0.xi13.xi1.        sram_row           1.00 
      382 xslice.xi3.xi0.xi13.xi0.        postdecoder        1.00 
      383 xslice.xi3.xi0.xi12.xi1.        sram_row           1.00 
      384 xslice.xi3.xi0.xi12.xi0.        postdecoder        1.00 
      385 xslice.xi3.xi0.xi11.xi1.        sram_row           1.00 
      386 xslice.xi3.xi0.xi11.xi0.        postdecoder        1.00 
      387 xslice.xi3.xi0.xi10.xi1.        sram_row           1.00 
      388 xslice.xi3.xi0.xi10.xi0.        postdecoder        1.00 
      389 xslice.xi3.xi0.xi9.xi1.         sram_row           1.00 
      390 xslice.xi3.xi0.xi9.xi0.         postdecoder        1.00 
      391 xslice.xi3.xi0.xi8.xi1.         sram_row           1.00 
      392 xslice.xi3.xi0.xi8.xi0.         postdecoder        1.00 
      393 xslice.xi3.xi0.xi7.xi1.         sram_row           1.00 
      394 xslice.xi3.xi0.xi7.xi0.         postdecoder        1.00 
      395 xslice.xi3.xi0.xi6.xi1.         sram_row           1.00 
      396 xslice.xi3.xi0.xi6.xi0.         postdecoder        1.00 
      397 xslice.xi3.xi0.xi5.xi1.         sram_row           1.00 
      398 xslice.xi3.xi0.xi5.xi0.         postdecoder        1.00 
      399 xslice.xi3.xi0.xi4.xi1.         sram_row           1.00 
      400 xslice.xi3.xi0.xi4.xi0.         postdecoder        1.00 
      401 xslice.xi3.xi0.xi3.xi1.         sram_row           1.00 
      402 xslice.xi3.xi0.xi3.xi0.         postdecoder        1.00 
      403 xslice.xi3.xi0.xi2.xi1.         sram_row           1.00 
      404 xslice.xi3.xi0.xi2.xi0.         postdecoder        1.00 
      405 xslice.xi3.xi0.xi1.xi1.         sram_row           1.00 
      406 xslice.xi3.xi0.xi1.xi0.         postdecoder        1.00 
      407 xslice.xi3.xi0.xi0.xi1.         sram_row           1.00 
      408 xslice.xi3.xi0.xi0.xi0.         postdecoder        1.00 
      409 xslice.xi2.xi0.xi15.xi1.        sram_row           1.00 
      410 xslice.xi2.xi0.xi15.xi0.        postdecoder        1.00 
      411 xslice.xi2.xi0.xi14.xi1.        sram_row           1.00 
      412 xslice.xi2.xi0.xi14.xi0.        postdecoder        1.00 
      413 xslice.xi2.xi0.xi13.xi1.        sram_row           1.00 
      414 xslice.xi2.xi0.xi13.xi0.        postdecoder        1.00 
      415 xslice.xi2.xi0.xi12.xi1.        sram_row           1.00 
      416 xslice.xi2.xi0.xi12.xi0.        postdecoder        1.00 
      417 xslice.xi2.xi0.xi11.xi1.        sram_row           1.00 
      418 xslice.xi2.xi0.xi11.xi0.        postdecoder        1.00 
      419 xslice.xi2.xi0.xi10.xi1.        sram_row           1.00 
      420 xslice.xi2.xi0.xi10.xi0.        postdecoder        1.00 
      421 xslice.xi2.xi0.xi9.xi1.         sram_row           1.00 
      422 xslice.xi2.xi0.xi9.xi0.         postdecoder        1.00 
      423 xslice.xi2.xi0.xi8.xi1.         sram_row           1.00 
      424 xslice.xi2.xi0.xi8.xi0.         postdecoder        1.00 
      425 xslice.xi2.xi0.xi7.xi1.         sram_row           1.00 
      426 xslice.xi2.xi0.xi7.xi0.         postdecoder        1.00 
      427 xslice.xi2.xi0.xi6.xi1.         sram_row           1.00 
      428 xslice.xi2.xi0.xi6.xi0.         postdecoder        1.00 
      429 xslice.xi2.xi0.xi5.xi1.         sram_row           1.00 
      430 xslice.xi2.xi0.xi5.xi0.         postdecoder        1.00 
      431 xslice.xi2.xi0.xi4.xi1.         sram_row           1.00 
      432 xslice.xi2.xi0.xi4.xi0.         postdecoder        1.00 
      433 xslice.xi2.xi0.xi3.xi1.         sram_row           1.00 
      434 xslice.xi2.xi0.xi3.xi0.         postdecoder        1.00 
      435 xslice.xi2.xi0.xi2.xi1.         sram_row           1.00 
      436 xslice.xi2.xi0.xi2.xi0.         postdecoder        1.00 
      437 xslice.xi2.xi0.xi1.xi1.         sram_row           1.00 
      438 xslice.xi2.xi0.xi1.xi0.         postdecoder        1.00 
      439 xslice.xi2.xi0.xi0.xi1.         sram_row           1.00 
      440 xslice.xi2.xi0.xi0.xi0.         postdecoder        1.00 
      441 xslice.xi1.xi0.xi15.xi1.        sram_row           1.00 
      442 xslice.xi1.xi0.xi15.xi0.        postdecoder        1.00 
      443 xslice.xi1.xi0.xi14.xi1.        sram_row           1.00 
      444 xslice.xi1.xi0.xi14.xi0.        postdecoder        1.00 
      445 xslice.xi1.xi0.xi13.xi1.        sram_row           1.00 
      446 xslice.xi1.xi0.xi13.xi0.        postdecoder        1.00 
      447 xslice.xi1.xi0.xi12.xi1.        sram_row           1.00 
      448 xslice.xi1.xi0.xi12.xi0.        postdecoder        1.00 
      449 xslice.xi1.xi0.xi11.xi1.        sram_row           1.00 
      450 xslice.xi1.xi0.xi11.xi0.        postdecoder        1.00 
      451 xslice.xi1.xi0.xi10.xi1.        sram_row           1.00 
      452 xslice.xi1.xi0.xi10.xi0.        postdecoder        1.00 
      453 xslice.xi1.xi0.xi9.xi1.         sram_row           1.00 
      454 xslice.xi1.xi0.xi9.xi0.         postdecoder        1.00 
      455 xslice.xi1.xi0.xi8.xi1.         sram_row           1.00 
      456 xslice.xi1.xi0.xi8.xi0.         postdecoder        1.00 
      457 xslice.xi1.xi0.xi7.xi1.         sram_row           1.00 
      458 xslice.xi1.xi0.xi7.xi0.         postdecoder        1.00 
      459 xslice.xi1.xi0.xi6.xi1.         sram_row           1.00 
      460 xslice.xi1.xi0.xi6.xi0.         postdecoder        1.00 
      461 xslice.xi1.xi0.xi5.xi1.         sram_row           1.00 
      462 xslice.xi1.xi0.xi5.xi0.         postdecoder        1.00 
      463 xslice.xi1.xi0.xi4.xi1.         sram_row           1.00 
      464 xslice.xi1.xi0.xi4.xi0.         postdecoder        1.00 
      465 xslice.xi1.xi0.xi3.xi1.         sram_row           1.00 
      466 xslice.xi1.xi0.xi3.xi0.         postdecoder        1.00 
      467 xslice.xi1.xi0.xi2.xi1.         sram_row           1.00 
      468 xslice.xi1.xi0.xi2.xi0.         postdecoder        1.00 
      469 xslice.xi1.xi0.xi1.xi1.         sram_row           1.00 
      470 xslice.xi1.xi0.xi1.xi0.         postdecoder        1.00 
      471 xslice.xi1.xi0.xi0.xi1.         sram_row           1.00 
      472 xslice.xi1.xi0.xi0.xi0.         postdecoder        1.00 
      473 xslice.xi0.xi0.xi15.xi1.        sram_row           1.00 
      474 xslice.xi0.xi0.xi15.xi0.        postdecoder        1.00 
      475 xslice.xi0.xi0.xi14.xi1.        sram_row           1.00 
      476 xslice.xi0.xi0.xi14.xi0.        postdecoder        1.00 
      477 xslice.xi0.xi0.xi13.xi1.        sram_row           1.00 
      478 xslice.xi0.xi0.xi13.xi0.        postdecoder        1.00 
      479 xslice.xi0.xi0.xi12.xi1.        sram_row           1.00 
      480 xslice.xi0.xi0.xi12.xi0.        postdecoder        1.00 
      481 xslice.xi0.xi0.xi11.xi1.        sram_row           1.00 
      482 xslice.xi0.xi0.xi11.xi0.        postdecoder        1.00 
      483 xslice.xi0.xi0.xi10.xi1.        sram_row           1.00 
      484 xslice.xi0.xi0.xi10.xi0.        postdecoder        1.00 
      485 xslice.xi0.xi0.xi9.xi1.         sram_row           1.00 
      486 xslice.xi0.xi0.xi9.xi0.         postdecoder        1.00 
      487 xslice.xi0.xi0.xi8.xi1.         sram_row           1.00 
      488 xslice.xi0.xi0.xi8.xi0.         postdecoder        1.00 
      489 xslice.xi0.xi0.xi7.xi1.         sram_row           1.00 
      490 xslice.xi0.xi0.xi7.xi0.         postdecoder        1.00 
      491 xslice.xi0.xi0.xi6.xi1.         sram_row           1.00 
      492 xslice.xi0.xi0.xi6.xi0.         postdecoder        1.00 
      493 xslice.xi0.xi0.xi5.xi1.         sram_row           1.00 
      494 xslice.xi0.xi0.xi5.xi0.         postdecoder        1.00 
      495 xslice.xi0.xi0.xi4.xi1.         sram_row           1.00 
      496 xslice.xi0.xi0.xi4.xi0.         postdecoder        1.00 
      497 xslice.xi0.xi0.xi3.xi1.         sram_row           1.00 
      498 xslice.xi0.xi0.xi3.xi0.         postdecoder        1.00 
      499 xslice.xi0.xi0.xi2.xi1.         sram_row           1.00 
      500 xslice.xi0.xi0.xi2.xi0.         postdecoder        1.00 
      501 xslice.xi0.xi0.xi1.xi1.         sram_row           1.00 
      502 xslice.xi0.xi0.xi1.xi0.         postdecoder        1.00 
      503 xslice.xi0.xi0.xi0.xi1.         sram_row           1.00 
      504 xslice.xi0.xi0.xi0.xi0.         postdecoder        1.00 
      505 xslice.xi3.xi0.xi15.xi1.xi3.    sram_cell          1.00 
      506 xslice.xi3.xi0.xi15.xi1.xi2.    sram_cell          1.00 
      507 xslice.xi3.xi0.xi15.xi1.xi1.    sram_cell          1.00 
      508 xslice.xi3.xi0.xi15.xi1.xi0.    sram_cell          1.00 
      509 xslice.xi3.xi0.xi15.xi0.xi1.    inv_1x_schematic   1.00 
      510 xslice.xi3.xi0.xi14.xi1.xi3.    sram_cell          1.00 
      511 xslice.xi3.xi0.xi14.xi1.xi2.    sram_cell          1.00 
      512 xslice.xi3.xi0.xi14.xi1.xi1.    sram_cell          1.00 
      513 xslice.xi3.xi0.xi14.xi1.xi0.    sram_cell          1.00 
      514 xslice.xi3.xi0.xi14.xi0.xi1.    inv_1x_schematic   1.00 
      515 xslice.xi3.xi0.xi13.xi1.xi3.    sram_cell          1.00 
      516 xslice.xi3.xi0.xi13.xi1.xi2.    sram_cell          1.00 
      517 xslice.xi3.xi0.xi13.xi1.xi1.    sram_cell          1.00 
      518 xslice.xi3.xi0.xi13.xi1.xi0.    sram_cell          1.00 
      519 xslice.xi3.xi0.xi13.xi0.xi1.    inv_1x_schematic   1.00 
      520 xslice.xi3.xi0.xi12.xi1.xi3.    sram_cell          1.00 
      521 xslice.xi3.xi0.xi12.xi1.xi2.    sram_cell          1.00 
      522 xslice.xi3.xi0.xi12.xi1.xi1.    sram_cell          1.00 
      523 xslice.xi3.xi0.xi12.xi1.xi0.    sram_cell          1.00 
      524 xslice.xi3.xi0.xi12.xi0.xi1.    inv_1x_schematic   1.00 
      525 xslice.xi3.xi0.xi11.xi1.xi3.    sram_cell          1.00 
      526 xslice.xi3.xi0.xi11.xi1.xi2.    sram_cell          1.00 
      527 xslice.xi3.xi0.xi11.xi1.xi1.    sram_cell          1.00 
      528 xslice.xi3.xi0.xi11.xi1.xi0.    sram_cell          1.00 
      529 xslice.xi3.xi0.xi11.xi0.xi1.    inv_1x_schematic   1.00 
      530 xslice.xi3.xi0.xi10.xi1.xi3.    sram_cell          1.00 
      531 xslice.xi3.xi0.xi10.xi1.xi2.    sram_cell          1.00 
      532 xslice.xi3.xi0.xi10.xi1.xi1.    sram_cell          1.00 
      533 xslice.xi3.xi0.xi10.xi1.xi0.    sram_cell          1.00 
      534 xslice.xi3.xi0.xi10.xi0.xi1.    inv_1x_schematic   1.00 
      535 xslice.xi3.xi0.xi9.xi1.xi3.     sram_cell          1.00 
      536 xslice.xi3.xi0.xi9.xi1.xi2.     sram_cell          1.00 
      537 xslice.xi3.xi0.xi9.xi1.xi1.     sram_cell          1.00 
      538 xslice.xi3.xi0.xi9.xi1.xi0.     sram_cell          1.00 
      539 xslice.xi3.xi0.xi9.xi0.xi1.     inv_1x_schematic   1.00 
      540 xslice.xi3.xi0.xi8.xi1.xi3.     sram_cell          1.00 
      541 xslice.xi3.xi0.xi8.xi1.xi2.     sram_cell          1.00 
[...]



 subckt     xslice.xi0   xslice.xi0   xslice.xi0   xslice.xi0   xslice.xi0
 element  815:mpm0     816:mnm3     816:mnm2     816:mnm0     816:mnm1    
 model      0:gpdk090_   0:gpdk090_   0:gpdk090_   0:gpdk090_   0:gpdk090_
 region       Saturati     Saturati       Cutoff       Cutoff     Saturati
  id         -19.5453u     19.5453u    -97.3007f    -97.3007f     19.5453u
  ibs          6.8413a     -1.4590a   -390.9941a   -390.9941a     -1.4590a
  ibd        595.9599a   -375.8493a   -390.7677a   -390.7677a   -375.8493a
  vgs       -775.2952m    424.7048m     -1.2000      -1.2000     424.7048m
  vds       -775.2952m    424.7048m   -775.2932m   -775.2932m    424.7048m
  vbs          0.           0.          -1.2000      -1.2000       0.     
  vth       -249.4782m    218.3391m    170.2598m    170.2598m    218.3391m
  vdsat     -348.6269m    160.9864m     42.9914m     42.9914m    160.9864m
  vod       -525.8170m    206.3657m     -1.3703      -1.3703     206.3657m
  beta       211.0310u      1.1270m    485.9060u    485.9060u      1.1270m
  gam eff    263.7520m    282.5346m    282.5346m    282.5346m    282.5346m
  gm          53.5436u    169.4007u      2.5990p      2.5990p    169.4007u
  gds          7.9873u     26.3524u    394.7560f    394.7560f     26.3524u
  gmb          3.6133u     12.8717u    114.3618f    114.3618f     12.8717u
  cdtot      148.2867a    222.8504a    148.0980a    148.0980a    222.8504a
  cgtot      204.9700a    486.0760a    109.7025a    109.7025a    486.0760a
  cstot      248.5418a    444.1813a    140.5411a    140.5411a    444.1813a
  cbtot      218.3388a    243.5746a    220.2702a    220.2702a    243.5746a
  cgs        151.6667a    363.7431a     43.5290a     43.5290a    363.7431a
  cgd         45.5771a     99.2527a     45.5070a     45.5070a     99.2527a



 subckt     xslice.xi0   xslice.xi0   xslice.xi0   xslice.xi0   xslice.xi0
 element  816:mpm1     816:mpm0     817:mnm3     817:mnm2     817:mnm0    
 model      0:gpdk090_   0:gpdk090_   0:gpdk090_   0:gpdk090_   0:gpdk090_
 region       Saturati     Saturati     Saturati       Cutoff       Cutoff
  id         -19.5453u    -19.5453u     19.5453u    -97.3007f    -97.3007f
  ibs          6.8413a      6.8413a     -1.4590a   -390.9941a   -390.9941a
  ibd        595.9599a    595.9599a   -375.8493a   -390.7677a   -390.7677a
  vgs       -775.2952m   -775.2952m    424.7048m     -1.2000      -1.2000 
  vds       -775.2952m   -775.2952m    424.7048m   -775.2932m   -775.2932m
  vbs          0.           0.           0.          -1.2000      -1.2000 
  vth       -249.4782m   -249.4782m    218.3391m    170.2598m    170.2598m
  vdsat     -348.6269m   -348.6269m    160.9864m     42.9914m     42.9914m
  vod       -525.8170m   -525.8170m    206.3657m     -1.3703      -1.3703 
  beta       211.0310u    211.0310u      1.1270m    485.9060u    485.9060u
  gam eff    263.7520m    263.7520m    282.5346m    282.5346m    282.5346m
  gm          53.5436u     53.5436u    169.4007u      2.5990p      2.5990p
  gds          7.9873u      7.9873u     26.3524u    394.7560f    394.7560f
  gmb          3.6133u      3.6133u     12.8717u    114.3618f    114.3618f
  cdtot      148.2867a    148.2867a    222.8504a    148.0980a    148.0980a
  cgtot      204.9700a    204.9700a    486.0760a    109.7025a    109.7025a
  cstot      248.5418a    248.5418a    444.1813a    140.5411a    140.5411a
  cbtot      218.3388a    218.3388a    243.5746a    220.2702a    220.2702a
  cgs        151.6667a    151.6667a    363.7431a     43.5290a     43.5290a
  cgd         45.5771a     45.5771a     99.2527a     45.5070a     45.5070a



 subckt     xslice.xi0   xslice.xi0   xslice.xi0   xslice.xi0   xslice.xi0
 element  817:mnm1     817:mpm1     817:mpm0     818:mnm3     818:mnm2    
 model      0:gpdk090_   0:gpdk090_   0:gpdk090_   0:gpdk090_   0:gpdk090_
 region       Saturati     Saturati     Saturati     Saturati       Cutoff
  id          19.5453u    -19.5453u    -19.5453u     19.5453u    -97.3007f
  ibs         -1.4590a      6.8413a      6.8413a     -1.4590a   -390.9941a
  ibd       -375.8493a    595.9599a    595.9599a   -375.8493a   -390.7677a
  vgs        424.7048m   -775.2952m   -775.2952m    424.7048m     -1.2000 
  vds        424.7048m   -775.2952m   -775.2952m    424.7048m   -775.2932m
  vbs          0.           0.           0.           0.          -1.2000 
  vth        218.3391m   -249.4782m   -249.4782m    218.3391m    170.2598m
  vdsat      160.9864m   -348.6269m   -348.6269m    160.9864m     42.9914m
  vod        206.3657m   -525.8170m   -525.8170m    206.3657m     -1.3703 
  beta         1.1270m    211.0310u    211.0310u      1.1270m    485.9060u
  gam eff    282.5346m    263.7520m    263.7520m    282.5346m    282.5346m
  gm         169.4007u     53.5436u     53.5436u    169.4007u      2.5990p
  gds         26.3524u      7.9873u      7.9873u     26.3524u    394.7561f
  gmb         12.8717u      3.6133u      3.6133u     12.8717u    114.3618f
  cdtot      222.8504a    148.2867a    148.2867a    222.8504a    148.0980a
  cgtot      486.0760a    204.9700a    204.9700a    486.0760a    109.7025a
  cstot      444.1813a    248.5418a    248.5418a    444.1813a    140.5411a
  cbtot      243.5746a    218.3388a    218.3388a    243.5746a    220.2702a
  cgs        363.7431a    151.6667a    151.6667a    363.7431a     43.5290a
  cgd         99.2527a     45.5771a     45.5771a     99.2527a     45.5070a



 subckt     xslice.xi0   xslice.xi0   xslice.xi0   xslice.xi0   xslice.xi0
 element  818:mnm0     818:mnm1     818:mpm1     818:mpm0     819:mnm1    
 model      0:gpdk090_   0:gpdk090_   0:gpdk090_   0:gpdk090_   0:gpdk090_
 region         Cutoff     Saturati     Saturati     Saturati       Linear
  id         -97.2673f     19.5453u    -19.5453u    -19.5453u      1.2452n
  ibs       -390.9938a     -1.4590a      6.8413a      6.8413a   -1.657e-22
  ibd       -390.7677a   -375.8493a    595.9599a    595.9599a   -2.600e-20
  vgs         -1.1999     424.7048m   -775.2952m   -775.2952m      1.2000 
  vds       -775.2086m    424.7048m   -775.2952m   -775.2952m      1.4632u
  vbs         -1.1999       0.           0.           0.           0.     
  vth        170.2715m    218.3391m   -249.4782m   -249.4782m    252.4625m
  vdsat       42.9914m    160.9864m   -348.6269m   -348.6269m    465.5396m
  vod         -1.3702     206.3657m   -525.8170m   -525.8170m    947.5360m
  beta       485.9067u      1.1270m    211.0310u    211.0310u    944.9943u
  gam eff    282.5346m    282.5346m    263.7520m    263.7520m    282.5346m
  gm           2.5982p    169.4007u     53.5436u     53.5436u    661.7225p
  gds        394.6226f     26.3524u      7.9873u      7.9873u    857.3950u
  gmb        114.3344f     12.8717u      3.6133u      3.6133u    128.4522p
  cdtot      148.0980a    222.8504a    148.2867a    148.2867a    865.3943a
  cgtot      109.7027a    486.0760a    204.9700a    204.9700a    592.6366a
  cstot      140.5417a    444.1813a    248.5418a    248.5418a    758.4296a
  cbtot      220.2707a    243.5746a    218.3388a    218.3388a    399.6808a
  cgs         43.5292a    363.7431a    151.6667a    151.6667a    316.9343a
  cgd         45.5070a     99.2527a     45.5771a     45.5771a    258.8322a



 subckt     xslice.xi0   xslice.xi0   xslice.xi0   xslice.xi0   xslice.xi0
 element  819:mpm2     820:mnm3     820:mnm2     820:mnm0     820:mnm1    
 model      0:gpdk090_   0:gpdk090_   0:gpdk090_   0:gpdk090_   0:gpdk090_
 region         Cutoff     Saturati       Cutoff       Cutoff     Saturati
  id          -1.2404n     19.5453u    -97.2673f    -97.3007f     19.5453u
  ibs        1.577e-22     -1.4590a   -390.9938a   -390.9941a     -1.4590a
  ibd          2.4660f   -375.8493a   -390.7677a   -390.7677a   -375.8493a
  vgs         -1.5043u    424.7048m     -1.1999      -1.2000     424.7048m
  vds         -1.2000     424.7048m   -775.2086m   -775.2932m    424.7048m
  vbs          0.           0.          -1.1999      -1.2000       0.     
  vth       -224.3341m    218.3391m    170.2715m    170.2598m    218.3391m
  vdsat      -41.7922m    160.9864m     42.9914m     42.9914m    160.9864m
  vod        224.3326m    206.3657m     -1.3702      -1.3703     206.3657m
  beta         1.7253m      1.1270m    485.9067u    485.9060u      1.1270m
  gam eff    263.7520m    282.5346m    282.5346m    282.5346m    282.5346m
  gm          50.8321n    169.4007u      2.5982p      2.5990p    169.4007u
  gds          4.3786n     26.3524u    394.6226f    394.7561f     26.3524u
  gmb          5.0036n     12.8717u    114.3344f    114.3618f     12.8717u
  cdtot      471.0131a    222.8504a    148.0980a    148.0980a    222.8504a
  cgtot      950.7323a    486.0760a    109.7027a    109.7025a    486.0760a
  cstot      739.1316a    444.1813a    140.5417a    140.5411a    444.1813a
  cbtot      518.2300a    243.5746a    220.2707a    220.2702a    243.5746a
  cgs        473.5880a    363.7431a     43.5292a     43.5290a    363.7431a
  cgd        352.6243a     99.2527a     45.5070a     45.5070a     99.2527a



 subckt     xslice.xi0   xslice.xi0   xslice.xi0   xslice.xi0   xslice.xi0
 element  820:mpm1     820:mpm0     821:mnm3     821:mnm2     821:mnm0    
 model      0:gpdk090_   0:gpdk090_   0:gpdk090_   0:gpdk090_   0:gpdk090_
 region       Saturati     Saturati     Saturati       Cutoff       Cutoff
  id         -19.5453u    -19.5453u     19.5453u    -97.3007f    -97.3007f
  ibs          6.8413a      6.8413a     -1.4590a   -390.9941a   -390.9941a
  ibd        595.9599a    595.9599a   -375.8493a   -390.7677a   -390.7677a
  vgs       -775.2952m   -775.2952m    424.7048m     -1.2000      -1.2000 
  vds       -775.2952m   -775.2952m    424.7048m   -775.2932m   -775.2932m
  vbs          0.           0.           0.          -1.2000      -1.2000 
  vth       -249.4782m   -249.4782m    218.3391m    170.2598m    170.2598m
  vdsat     -348.6269m   -348.6269m    160.9864m     42.9914m     42.9914m
  vod       -525.8170m   -525.8170m    206.3657m     -1.3703      -1.3703 
  beta       211.0310u    211.0310u      1.1270m    485.9060u    485.9060u
  gam eff    263.7520m    263.7520m    282.5346m    282.5346m    282.5346m
  gm          53.5436u     53.5436u    169.4007u      2.5990p      2.5990p
  gds          7.9873u      7.9873u     26.3524u    394.7560f    394.7560f
  gmb          3.6133u      3.6133u     12.8717u    114.3618f    114.3618f
  cdtot      148.2867a    148.2867a    222.8504a    148.0980a    148.0980a
  cgtot      204.9700a    204.9700a    486.0760a    109.7025a    109.7025a
  cstot      248.5418a    248.5418a    444.1813a    140.5411a    140.5411a
  cbtot      218.3388a    218.3388a    243.5746a    220.2702a    220.2702a
  cgs        151.6667a    151.6667a    363.7431a     43.5290a     43.5290a
  cgd         45.5771a     45.5771a     99.2527a     45.5070a     45.5070a



 subckt     xslice.xi0   xslice.xi0   xslice.xi0   xslice.xi0   xslice.xi0
 element  821:mnm1     821:mpm1     821:mpm0     822:mnm3     822:mnm2    
 model      0:gpdk090_   0:gpdk090_   0:gpdk090_   0:gpdk090_   0:gpdk090_
 region       Saturati     Saturati     Saturati     Saturati       Cutoff
  id          19.5453u    -19.5453u    -19.5453u     19.5453u    -97.3007f
  ibs         -1.4590a      6.8413a      6.8413a     -1.4590a   -390.9941a
  ibd       -375.8493a    595.9599a    595.9599a   -375.8493a   -390.7677a
  vgs        424.7048m   -775.2952m   -775.2952m    424.7048m     -1.2000 
  vds        424.7048m   -775.2952m   -775.2952m    424.7048m   -775.2932m
  vbs          0.           0.           0.           0.          -1.2000 
  vth        218.3391m   -249.4782m   -249.4782m    218.3391m    170.2598m
  vdsat      160.9864m   -348.6269m   -348.6269m    160.9864m     42.9914m
  vod        206.3657m   -525.8170m   -525.8170m    206.3657m     -1.3703 
  beta         1.1270m    211.0310u    211.0310u      1.1270m    485.9060u
  gam eff    282.5346m    263.7520m    263.7520m    282.5346m    282.5346m
  gm         169.4007u     53.5436u     53.5436u    169.4007u      2.5990p
  gds         26.3524u      7.9873u      7.9873u     26.3524u    394.7560f
  gmb         12.8717u      3.6133u      3.6133u     12.8717u    114.3618f
  cdtot      222.8504a    148.2867a    148.2867a    222.8504a    148.0980a
  cgtot      486.0760a    204.9700a    204.9700a    486.0760a    109.7025a
  cstot      444.1813a    248.5418a    248.5418a    444.1813a    140.5411a
  cbtot      243.5746a    218.3388a    218.3388a    243.5746a    220.2702a
  cgs        363.7431a    151.6667a    151.6667a    363.7431a     43.5290a
  cgd         99.2527a     45.5771a     45.5771a     99.2527a     45.5070a



 subckt     xslice.xi0   xslice.xi0   xslice.xi0   xslice.xi0   xslice.xi0
 element  822:mnm0     822:mnm1     822:mpm1     822:mpm0     823:mnm3    
 model      0:gpdk090_   0:gpdk090_   0:gpdk090_   0:gpdk090_   0:gpdk090_
 region         Cutoff     Saturati     Saturati     Saturati     Saturati
  id         -97.3007f     19.5453u    -19.5453u    -19.5453u     19.5453u
  ibs       -390.9941a     -1.4590a      6.8413a      6.8413a     -1.4590a
  ibd       -390.7677a   -375.8493a    595.9599a    595.9599a   -375.8493a
  vgs         -1.2000     424.7048m   -775.2952m   -775.2952m    424.7048m
  vds       -775.2932m    424.7048m   -775.2952m   -775.2952m    424.7048m
  vbs         -1.2000       0.           0.           0.           0.     
  vth        170.2598m    218.3391m   -249.4782m   -249.4782m    218.3391m
  vdsat       42.9914m    160.9864m   -348.6269m   -348.6269m    160.9864m
  vod         -1.3703     206.3657m   -525.8170m   -525.8170m    206.3657m
  beta       485.9060u      1.1270m    211.0310u    211.0310u      1.1270m
  gam eff    282.5346m    282.5346m    263.7520m    263.7520m    282.5346m
  gm           2.5990p    169.4007u     53.5436u     53.5436u    169.4007u
  gds        394.7560f     26.3524u      7.9873u      7.9873u     26.3524u
  gmb        114.3618f     12.8717u      3.6133u      3.6133u     12.8717u
  cdtot      148.0980a    222.8504a    148.2867a    148.2867a    222.8504a
  cgtot      109.7025a    486.0760a    204.9700a    204.9700a    486.0760a
  cstot      140.5411a    444.1813a    248.5418a    248.5418a    444.1813a
  cbtot      220.2702a    243.5746a    218.3388a    218.3388a    243.5746a
  cgs         43.5290a    363.7431a    151.6667a    151.6667a    363.7431a
  cgd         45.5070a     99.2527a     45.5771a     45.5771a     99.2527a



 subckt     xslice.xi0   xslice.xi0   xslice.xi0   xslice.xi0   xslice.xi0
 element  823:mnm2     823:mnm0     823:mnm1     823:mpm1     823:mpm0    
 model      0:gpdk090_   0:gpdk090_   0:gpdk090_   0:gpdk090_   0:gpdk090_
 region         Cutoff       Cutoff     Saturati     Saturati     Saturati
  id         -97.3007f    -97.2673f     19.5453u    -19.5453u    -19.5453u
  ibs       -390.9941a   -390.9938a     -1.4590a      6.8413a      6.8413a
  ibd       -390.7677a   -390.7677a   -375.8493a    595.9599a    595.9599a
  vgs         -1.2000      -1.1999     424.7048m   -775.2952m   -775.2952m
  vds       -775.2932m   -775.2086m    424.7048m   -775.2952m   -775.2952m
  vbs         -1.2000      -1.1999       0.           0.           0.     
  vth        170.2598m    170.2715m    218.3391m   -249.4782m   -249.4782m
  vdsat       42.9914m     42.9914m    160.9864m   -348.6269m   -348.6269m
  vod         -1.3703      -1.3702     206.3657m   -525.8170m   -525.8170m
  beta       485.9060u    485.9067u      1.1270m    211.0310u    211.0310u
  gam eff    282.5346m    282.5346m    282.5346m    263.7520m    263.7520m
  gm           2.5990p      2.5982p    169.4007u     53.5436u     53.5436u
  gds        394.7561f    394.6226f     26.3524u      7.9873u      7.9873u
  gmb        114.3618f    114.3344f     12.8717u      3.6133u      3.6133u
  cdtot      148.0980a    148.0980a    222.8504a    148.2867a    148.2867a
  cgtot      109.7025a    109.7027a    486.0760a    204.9700a    204.9700a
  cstot      140.5411a    140.5417a    444.1813a    248.5418a    248.5418a
  cbtot      220.2702a    220.2707a    243.5746a    218.3388a    218.3388a
  cgs         43.5290a     43.5292a    363.7431a    151.6667a    151.6667a
  cgd         45.5070a     45.5070a     99.2527a     45.5771a     45.5771a



 subckt     xslice.xi0   xslice.xi0
 element  824:mnm1     824:mpm2    
 model      0:gpdk090_   0:gpdk090_
 region         Linear       Cutoff
  id           1.2452n     -1.2404n
  ibs       -1.657e-22    1.577e-22
  ibd       -2.600e-20      2.4660f
  vgs          1.2000      -1.5043u
  vds          1.4632u     -1.2000 
  vbs          0.           0.     
  vth        252.4625m   -224.3341m
  vdsat      465.5396m    -41.7922m
  vod        947.5360m    224.3326m
  beta       944.9943u      1.7253m
  gam eff    282.5346m    263.7520m
  gm         661.7225p     50.8321n
  gds        857.3950u      4.3786n
  gmb        128.4522p      5.0036n
  cdtot      865.3943a    471.0131a
  cgtot      592.6366a    950.7323a
  cstot      758.4296a    739.1316a
  cbtot      399.6808a    518.2300a
  cgs        316.9343a    473.5880a
  cgd        258.8322a    352.6243a



 **warning** node l<15>            can't be found, so its signal will be ignored
 **warning** node l<14>            can't be found, so its signal will be ignored
 **warning** node l<13>            can't be found, so its signal will be ignored
 **warning** node l<12>            can't be found, so its signal will be ignored
 **warning** node l<11>            can't be found, so its signal will be ignored
 **warning** node l<10>            can't be found, so its signal will be ignored
 **warning** node l<9>             can't be found, so its signal will be ignored
 **warning** node l<8>             can't be found, so its signal will be ignored
 **warning** node l<7>             can't be found, so its signal will be ignored
 **warning** node l<6>             can't be found, so its signal will be ignored
 **warning** node l<5>             can't be found, so its signal will be ignored
 **warning** node l<4>             can't be found, so its signal will be ignored
 **warning** node l<3>             can't be found, so its signal will be ignored
 **warning** node l<2>             can't be found, so its signal will be ignored
 **warning** node l<1>             can't be found, so its signal will be ignored
 **warning** node l<0>             can't be found, so its signal will be ignored

          ***** job concluded
1****** HSPICE -- A-2008.03-SP1 32-BIT (May 26 2008) linux ******               
 ******  
 ** ee 141 term project fall 2012 phase ii - mux and vertical logic block **

  ******  job statistics summary tnom=  25.000 temp=  25.000 *****

  ******  Circuit Statistics  ******
  # nodes       =    7157  # elements   =    2951
  # resistors   =       0  # capacitors =      18  # inductors   =       0
  # mutual_inds =       0  # vccs       =       0  # vcvs        =       0
  # cccs        =       0  # ccvs       =       0  # volt_srcs   =       1
  # curr_srcs   =       0  # diodes     =       0  # bjts        =       0
  # jfets       =       0  # mosfets    =    2932  # U elements  =       0
  # T elements  =       0  # W elements =       0  # B elements  =       0
  # S elements  =       0  # P elements =       0  # va device   =       0


  ******  Runtime Statistics (seconds)  ******
  analysis           time    # points   tot. iter  conv.iter
  op point           1.55           1          36
  transient          2.17         101         248          91 rev=         6
  readin             0.02
  errchk             0.11
  setup              0.30
  output             0.00


           total memory used        23327  kbytes
           total cpu time            4.08 seconds
           total elapsed time           5 seconds
           job started at     20:46:56 11/14/2012
           job ended   at     20:47:01 11/14/2012


 Init: hspice initialization file: /share/instsww/synopsys/A-2008.03-SP1/hspice/hspice.ini
 lic: Release hspice token(s) 
